geometry optimzed in LAMMPS
_audit_creation_date              2020-11-30 
_audit_creation_method            'lammps2cif' 
_symmetry_space_group_name_H-M    'P1' 
_symmetry_Int_Tables_number       1 
_symmetry_cell_setting            triclinic 
loop_ 
_symmetry_equiv_pos_as_xyz 
  x,y,z 
_cell_length_a                    36.03320514 
_cell_length_b                    35.932882647045346 
_cell_length_c                    68.78985689660354 
_cell_angle_alpha                 91.45965026134166 
_cell_angle_beta                  88.63868777887953 
_cell_angle_gamma                 92.94882252738036 
loop_ 
_atom_site_label 
_atom_site_type_symbol 
_atom_site_fract_x 
_atom_site_fract_y 
_atom_site_fract_z 
_atom_site_charge 
N1          N  0.43565107  0.28048196  0.40578436    -0.35000
N2          N  0.44607753  0.22229663  0.37566260    -0.55600
N3          N  0.45104175  0.27847097  0.34655051    -0.35000
N4          N  0.43701458  0.33598125  0.37639643    -0.55600
C5          C  0.42425002  0.24975473  0.41567138     0.28500
C6          C  0.42507328  0.31044882  0.41648091     0.28600
C7          C  0.45240266  0.24735347  0.33508298     0.28500
C8          C  0.44160295  0.30660295  0.33522343     0.28500
C9          C  0.44524514  0.20124292  0.39167927     0.37200
C10         C  0.45953972  0.20110901  0.36082039     0.37200
C11         C  0.43918454  0.35914471  0.39217390     0.37200
C12         C  0.44206303  0.35755667  0.36069043     0.37200
C13         C  0.40666062  0.26047239  0.43297418    -0.20300
C14         C  0.40743742  0.29875480  0.43353219    -0.20300
C15         C  0.44422370  0.25585293  0.31616775    -0.20300
C16         C  0.43711994  0.29317746  0.31627914    -0.20300
C17         C  0.45760446  0.16616630  0.38694854    -0.21400
C18         C  0.46701203  0.16619509  0.36743301    -0.21400
C19         C  0.44544391  0.39567835  0.38649049    -0.21400
C20         C  0.44708510  0.39471488  0.36653136    -0.21400
C21         C  0.43132552  0.21251344  0.41017951    -0.16700
C22         C  0.43179460  0.34805117  0.41144289    -0.16700
C23         C  0.44004393  0.34451910  0.34117882    -0.16700
C24         C  0.46226613  0.21195232  0.34116650    -0.16700
H25         H  0.39482325  0.24261873  0.44419830     0.16200
H26         H  0.39602606  0.31598386  0.44510427     0.16200
H27         H  0.44336837  0.23709333  0.30360611     0.16200
H28         H  0.43019994  0.30881675  0.30373941     0.16200
H29         H  0.45951685  0.14296528  0.39654483     0.14500
H30         H  0.47721109  0.14287399  0.35898892     0.14500
H31         H  0.44761975  0.42049823  0.39572728     0.14500
H32         H  0.45122357  0.41870257  0.35738199     0.14500
H33         H  0.45300741  0.28117165  0.39357813     0.27700
H34         H  0.46038440  0.28121852  0.36063446     0.27700
N35         N  0.18976125  0.24721972  0.35139448    -0.35000
N36         N  0.20759468  0.19507761  0.38168986    -0.55600
N37         N  0.21297434  0.25601535  0.40984106    -0.35000
N38         N  0.19867507  0.30863813  0.37893078    -0.55600
C39         C  0.19663911  0.21666526  0.34025276     0.28500
C40         C  0.18682018  0.27609017  0.33933625     0.28600
C41         C  0.22492530  0.22786062  0.42052526     0.28500
C42         C  0.22521821  0.28870326  0.41833049     0.28500
C43         C  0.19960160  0.17074070  0.36687613     0.37200
C44         C  0.20727472  0.17491993  0.39806521     0.37200
C45         C  0.18347930  0.32709348  0.36439668     0.37200
C46         C  0.20096620  0.33255467  0.39440489     0.37200
C47         C  0.19776321  0.22621688  0.32079975    -0.20300
C48         C  0.19129878  0.26363288  0.32022417    -0.20300
C49         C  0.24440487  0.24284332  0.43624626    -0.20300
C50         C  0.24481604  0.28113781  0.43480429    -0.20300
C51         C  0.19448355  0.13492335  0.37385310    -0.21400
C52         C  0.19910873  0.13759640  0.39359302    -0.21400
C53         C  0.17625878  0.36302855  0.37066087    -0.21400
C54         C  0.18758225  0.36657807  0.38959237    -0.21400
C55         C  0.19875258  0.17993134  0.34702132    -0.16700
C56         C  0.17878698  0.31294756  0.34514907    -0.16700
C57         C  0.21730066  0.32504115  0.41232996    -0.16700
C58         C  0.21787970  0.18912224  0.41659895    -0.16700
H59         H  0.20198490  0.20795943  0.30827061     0.16200
H60         H  0.19002164  0.27979928  0.30721511     0.16200
H61         H  0.25725263  0.22775999  0.44749865     0.13400
H62         H  0.25777958  0.30113843  0.44488973     0.16200
H63         H  0.18820004  0.10945226  0.36557499     0.14500
H64         H  0.19746681  0.11453004  0.40344279     0.14500
H65         H  0.16483575  0.38471566  0.36233710     0.14500
H66         H  0.18628972  0.39145576  0.39874035     0.14500
H67         H  0.18320280  0.24744696  0.36616287     0.27700
H68         H  0.19434115  0.25309859  0.39854296     0.27700
O69         O  0.37606695  0.46506257  0.49662005    -0.78600
O70         O  0.37061302  0.05072284  0.52482931    -0.78600
O71         O  0.34923468  0.06186991  0.46813334    -0.78600
O72         O  0.31262350  0.47130180  0.55432857    -0.78500
O73         O  0.35742904  0.09926038  0.49392982    -0.78700
O74         O  0.35837641  0.45901887  0.53423198    -0.78600
O75         O  0.32981274  0.04630058  0.54949596    -0.78600
O76         O  0.35531596  0.49117531  0.47151784    -0.78600
C77         C  0.37702085  0.46947093  0.47858992     1.11100
C78         C  0.36180512  0.05687731  0.54265744     1.11000
C79         C  0.36192469  0.09285667  0.47559176     1.11100
C80         C  0.34326692  0.45681718  0.55078944     1.11000
O81         O  0.28383423  0.42859321  0.52551635    -0.78600
O82         O  0.28557395  0.07470748  0.49165752    -0.78600
O83         O  0.29102012  0.49316707  0.47186844    -0.78600
O84         O  0.25873019  0.05100082  0.53030986    -0.78600
O85         O  0.30554109  0.09099577  0.52603703    -0.78600
O86         O  0.30045516  0.43890830  0.48639962    -0.78600
O87         O  0.24679365  0.47449460  0.53387633    -0.78500
O88         O  0.28152943  0.02818153  0.47199221    -0.78600
Co89       Co  0.32853746  0.45147571  0.51068458     1.51500
Co90       Co  0.32968666  0.05704690  0.50658505     1.51700
Co91       Co  0.32750399  0.02698746  0.48766710     1.51600
Co92       Co  0.28782315  0.01098414  0.54013682     1.51500
O93         O  0.30801468  0.00339697  0.51242216    -1.40500
C94         C  0.25312137  0.44006217  0.53251583     1.11100
C95         C  0.27065403  0.05997240  0.47686439     1.11100
C96         C  0.28611953  0.45730176  0.47313051     1.11100
C97         C  0.27296214  0.08345367  0.53248942     1.11100
N98         N  0.39870675  0.26031967  0.61504686    -0.35000
N99         N  0.40682441  0.31771801  0.64675741    -0.55600
N100        N  0.42354623  0.26088484  0.67341697    -0.35000
N101        N  0.41882964  0.20415831  0.64135635    -0.55600
C102        C  0.39807487  0.29199293  0.60482351     0.28500
C103        C  0.40355002  0.23154120  0.60214818     0.28600
C104        C  0.43204887  0.29172357  0.68455207     0.28500
C105        C  0.43935825  0.23195034  0.68158840     0.28500
C106        C  0.39405905  0.33881024  0.63261974     0.37200
C107        C  0.40686784  0.33893760  0.66335178     0.37200
C108        C  0.41020506  0.18137018  0.62594989     0.37200
C109        C  0.42390909  0.18193238  0.65651508     0.37200
C110        C  0.40188399  0.28311881  0.58512543    -0.20300
C111        C  0.40528113  0.24510020  0.58345500    -0.20300
C112        C  0.95276152  0.28201003  0.70020634    -0.20300
C113        C  0.95741681  0.24440188  0.69833232    -0.20300
C114        C  0.38607853  0.37371101  0.64031459    -0.21400
C115        C  0.39423381  0.37376981  0.65973699    -0.21400
C116        C  0.40993250  0.14446447  0.63137051    -0.21400
C117        C  0.41864261  0.14481607  0.65069938    -0.21400
C118        C  0.39237754  0.32838415  0.61261107    -0.16700
C119        C  0.40534998  0.19330864  0.60676259    -0.16700
C120        C  0.43662853  0.19431569  0.67497458    -0.16700
C121        C  0.42100546  0.32823900  0.68128262    -0.16700
H122        H  0.40207934  0.30206972  0.57313914     0.16200
H123        H  0.40870085  0.22926987  0.56999145     0.16200
H124        H  0.96362376  0.30013010  0.71176339     0.16200
H125        H  0.97242558  0.22809279  0.70824544     0.16200
H126        H  0.37610680  0.39703473  0.63265764     0.14500
H127        H  0.39181381  0.39700551  0.66993518     0.14500
H128        H  0.40472334  0.11981659  0.62227520     0.14500
H129        H  0.42150147  0.12047172  0.65938529     0.14500
H130        H  0.39247669  0.25826311  0.62979367     0.27700
H131        H  0.40513090  0.25880173  0.66201487     0.27700
N132        N  0.12877314  0.25025104  0.65675270    -0.35000
N133        N  0.14430263  0.30682483  0.62601288    -0.55600
N134        N  0.18060177  0.25300328  0.60281607    -0.35000
N135        N  0.16846664  0.19712479  0.63373993    -0.55600
C136        C  0.11979377  0.28202175  0.66633706     0.28500
C137        C  0.13218789  0.22358102  0.67022250     0.28600
C138        C  0.19117740  0.28402912  0.59285784     0.28500
C139        C  0.20290224  0.22593225  0.59667184     0.28500
C140        C  0.12230374  0.32610519  0.63827102     0.37200
C141        C  0.14959877  0.32734608  0.60982379     0.37200
C142        C  0.15612555  0.17416759  0.64806745     0.37200
C143        C  0.18110342  0.17514559  0.61908595     0.37200
C144        C  0.11614047  0.27509974  0.68609458    -0.20300
C145        C  0.12385995  0.23832873  0.68851679    -0.20300
C146        C  0.22049895  0.27644431  0.58022155    -0.20300
C147        C  0.22787288  0.23976369  0.58259602    -0.20300
C148        C  0.11352550  0.35915909  0.62976282    -0.21400
C149        C  0.13082469  0.35989041  0.61174952    -0.21400
C150        C  0.16158014  0.13742341  0.64260579    -0.21400
C151        C  0.17718435  0.13802039  0.62417954    -0.21400
C152        C  0.11397141  0.31687469  0.65782658    -0.16700
C153        C  0.14209934  0.18622266  0.66640350    -0.16700
C154        C  0.19881348  0.18823655  0.60187462    -0.16700
C155        C  0.17385849  0.31837422  0.59418684    -0.16700
H156        H  0.10879842  0.29457964  0.69764026     0.16200
H157        H  0.12371385  0.22419587  0.70222814     0.16200
H158        H  0.23482098  0.29521304  0.57015738     0.16200
H159        H  0.24892526  0.22480403  0.57463412     0.16200
H160        H  0.09720154  0.38102849  0.63610152     0.14500
H161        H  0.13047877  0.38222869  0.60150270     0.14500
H162        H  0.15515239  0.11279927  0.65103553     0.14500
H163        H  0.18549848  0.11394999  0.61568847     0.14500
H164        H  0.12967049  0.24661180  0.64173993     0.27700
H165        H  0.15660836  0.24867298  0.61129964     0.27700
O166        O  0.02856256  0.47327160  0.29355844    -0.78600
O167        O  0.09864159  0.52097074  0.21729665    -0.78600
O168        O  0.50651414  0.46861719  0.24743821    -0.78600
O169        O  0.11965383  0.44426580  0.26863356    -0.78500
O170        O  0.03425170  0.49091713  0.22300000    -0.78700
O171        O  0.10377075  0.46879974  0.29735638    -0.78600
O172        O  0.11091629  0.46951906  0.23146490    -0.78600
O173        O  0.48919959  0.50640676  0.27803184    -0.78600
C174        C  0.99575632  0.47986721  0.28914422     1.11100
C175        C  0.11352246  0.48973566  0.21675854     1.11000
C176        C  0.01171834  0.46667719  0.22966691     1.11100
C177        C  0.11620299  0.44223378  0.28694738     1.11000
O178        O  0.11042179  0.04926904  0.29303709    -0.78600
O179        O  0.03213110  0.06433764  0.22171724    -0.78600
O180        O  0.53313227  0.07194193  0.26554533    -0.78600
O181        O  0.14313112  0.04213056  0.24365820    -0.78600
O182        O  0.09396483  0.07647249  0.24678287    -0.78600
O183        O  0.03611083  0.05273075  0.29524026    -0.78600
O184        O  0.15360504  0.01530114  0.27975002    -0.78500
O185        O  0.48427545  0.04212483  0.24017895    -0.78600
Co186      Co  0.07016292  0.51070803  0.29259642     1.51500
Co187      Co  0.06104539  0.53334897  0.23829367     1.51700
Co188      Co  0.02330954  0.51997178  0.25546541     1.51600
Co189      Co  0.12810042  0.49299059  0.25607256     1.51500
O190        O  0.07409618  0.50443853  0.26291918    -1.40500
C191        C  0.14400420  0.04314023  0.28997625     1.11100
C192        C  0.99706623  0.06220313  0.22595781     1.11100
C193        C  0.02975129  0.07797433  0.28359599     1.11100
C194        C  0.12825055  0.07344260  0.24276996     1.11100
O195        O  0.46870006  0.20110293  0.99311521    -0.78600
O196        O  0.09924424  0.19408969  0.02836404    -0.78600
O197        O  0.09955699  0.17654281  0.98617318    -0.78600
O198        O  0.01541765  0.22911785  0.04854460    -0.78500
O199        O  0.14964816  0.20555803  0.99943079    -0.78700
O200        O  0.51336903  0.18936484  0.02365953    -0.78600
O201        O  0.09172670  0.23501722  0.05200500    -0.78600
O202        O  0.01900627  0.17467401  0.98128684    -0.78600
C203        C  0.98335922  0.17608478  0.98247855     1.11100
C204        C  0.10351788  0.20430883  0.04588754     1.11000
C205        C  0.13473783  0.17878155  0.98939041     1.11100
C206        C  0.00535996  0.19758562  0.04114175     1.11000
O207        O  0.47632762  0.25826077  0.02235844    -0.78600
O208        O  0.12102507  0.27084334  0.98860989    -0.78600
O209        O  0.03377953  0.23868791  0.96500308    -0.78600
O210        O  0.09504915  0.30592064  0.03507902    -0.78600
O211        O  0.13816816  0.26665941  0.02625166    -0.78600
O212        O  0.50282921  0.26978312  0.98655283    -0.78600
O213        O  0.01861181  0.30136674  0.03143340    -0.78500
O214        O  0.09417145  0.23620345  0.96628934    -0.78600
Co215      Co  0.00997006  0.22934399  0.00477266     1.51500
Co216      Co  0.10794848  0.23243398  0.00820049     1.51700
Co217      Co  0.06002317  0.21537474  0.98651057     1.51600
Co218      Co  0.05514550  0.26704427  0.04007079     1.51500
O219        O  0.05879195  0.25056514  0.01162200    -1.40500
C220        C  0.98513488  0.28995164  0.02996223     1.11100
C221        C  0.11662031  0.26265719  0.97089100     1.11100
C222        C  0.01102755  0.26336961  0.96902092     1.11100
C223        C  0.12883031  0.29763422  0.03389236     1.11100
N224        N  0.31502329  0.31036937  0.90203582    -0.35000
N225        N  0.37491826  0.32314853  0.87391891    -0.55600
N226        N  0.32348219  0.35065121  0.84645695    -0.35000
N227        N  0.26360783  0.34064565  0.87496022    -0.55600
C228        C  0.34456057  0.30825191  0.91370578     0.28500
C229        C  0.28447347  0.31320239  0.91360776     0.28600
C230        C  0.35648472  0.35997130  0.83760563     0.28500
C231        C  0.29752339  0.37130625  0.83858322     0.28500
C232        C  0.39326197  0.30574692  0.88763024     0.37200
C233        C  0.39710060  0.32352345  0.85784924     0.37200
C234        C  0.23884648  0.32659243  0.88824573     0.37200
C235        C  0.24369804  0.35111354  0.85977128     0.37200
C236        C  0.33247487  0.30902040  0.93300517    -0.20300
C237        C  0.29444545  0.31181857  0.93294177    -0.20300
C238        C  0.35135714  0.38640099  0.82370418    -0.20300
C239        C  0.31416799  0.39356585  0.82432862    -0.20300
C240        C  0.42718172  0.29470487  0.88021559    -0.21400
C241        C  0.42955419  0.30584535  0.86128772    -0.21400
C242        C  0.20298285  0.32840917  0.88151839    -0.21400
C243        C  0.20606551  0.34416147  0.86353536    -0.21400
C244        C  0.38163714  0.30359911  0.90725153    -0.16700
C245        C  0.24780734  0.31552165  0.90705183    -0.16700
C246        C  0.25898044  0.36897599  0.84313030    -0.16700
C247        C  0.39069013  0.34404762  0.84119968    -0.16700
H248        H  0.34920415  0.30721594  0.94577768     0.16200
H249        H  0.27625648  0.31293185  0.94567238     0.16200
H250        H  0.37220952  0.39911595  0.81404314     0.16200
H251        H  0.30087159  0.41280848  0.81521164     0.16200
H252        H  0.44836464  0.28089497  0.88779395     0.14500
H253        H  0.45307473  0.30257321  0.85142314     0.14500
H254        H  0.17720822  0.32009013  0.88897487     0.14500
H255        H  0.18321857  0.35009144  0.85435628     0.14500
H256        H  0.31487751  0.30633632  0.88704167     0.27700
H257        H  0.31842050  0.32859958  0.85579322     0.27700
N258        N  0.29529846  0.09261899  0.85482857    -0.35000
N259        N  0.24193362  0.10331003  0.88632586    -0.55600
N260        N  0.30059499  0.09493741  0.91448367    -0.35000
N261        N  0.35459845  0.08860571  0.88293280    -0.55600
C262        C  0.26678378  0.10485831  0.84463250     0.28500
C263        C  0.32529515  0.09185136  0.84268558     0.28600
C264        C  0.27207059  0.10447113  0.92638117     0.28500
C265        C  0.33232361  0.10200421  0.92444575     0.28500
C266        C  0.21854800  0.10398070  0.87128608     0.37200
C267        C  0.22049131  0.10045441  0.90263028     0.37200
C268        C  0.37367188  0.07823311  0.86670832     0.37200
C269        C  0.37772160  0.08614825  0.89802480     0.37200
C270        C  0.27880404  0.11149590  0.82566483    -0.20300
C271        C  0.31563082  0.10306000  0.82440377    -0.20300
C272        C  0.28566434  0.11640062  0.94432231    -0.20300
C273        C  0.32356175  0.11503698  0.94306802    -0.20300
C274        C  0.18197640  0.10198817  0.87810140    -0.21400
C275        C  0.18321015  0.09960819  0.89796328    -0.21400
C276        C  0.40923669  0.06914880  0.87155977    -0.21400
C277        C  0.41190046  0.07459065  0.89136286    -0.21400
C278        C  0.22974470  0.10801070  0.85160414    -0.16700
C279        C  0.36078183  0.08016344  0.84746830    -0.16700
C280        C  0.36895871  0.09631241  0.91752266    -0.16700
C281        C  0.23404476  0.10248347  0.92171872    -0.16700
H282        H  0.26261978  0.12099261  0.81387267     0.16200
H283        H  0.33333111  0.10514114  0.81150234     0.16200
H284        H  0.27002224  0.12577073  0.95698452     0.16200
H285        H  0.34245160  0.12283742  0.95464432     0.16200
H286        H  0.15701900  0.10246300  0.86967848     0.14500
H287        H  0.15941355  0.09833640  0.90787154     0.14500
H288        H  0.43138434  0.06063796  0.86178838     0.14500
H289        H  0.43620154  0.07062289  0.89987605     0.14500
H290        H  0.29366255  0.08147588  0.86857768     0.27700
H291        H  0.29795029  0.08155439  0.90102346     0.27700
O292        O  0.10235141  0.45659621  0.73364663    -0.78600
O293        O  0.07140934  0.07647869  0.78359740    -0.78600
O294        O  0.08118205  0.03525363  0.72758948    -0.78600
O295        O  0.10747274  0.45928141  0.79974502    -0.78500
O296        O  0.10781092  0.06082150  0.75157033    -0.78700
O297        O  0.13026760  0.44503582  0.77036953    -0.78600
O298        O  0.10393347  0.03487012  0.79781857    -0.78600
O299        O  0.05002500  0.47189034  0.72133258    -0.78600
C300        C  0.08055088  0.45608650  0.71954747     1.11100
C301        C  0.09747737  0.06833703  0.79467290     1.11000
C302        C  0.10656465  0.05721609  0.73366721     1.11100
C303        C  0.13312825  0.44696197  0.78871572     1.11000
O304        O  0.05995693  0.41128505  0.78197665    -0.78600
O305        O  0.03461073  0.08513857  0.74616506    -0.78600
O306        O  0.99714213  0.47407319  0.75168339    -0.78600
O307        O  0.02454644  0.02820742  0.79989995    -0.78600
O308        O  0.00547073  0.03410899  0.77034813    -0.78600
O309        O  0.03072886  0.42464878  0.74676267    -0.78600
O310        O  0.02701482  0.45387872  0.79654238    -0.78500
O311        O  0.00857356  0.03863828  0.72793252    -0.78600
Co312      Co  0.08080353  0.43817456  0.75845202     1.51500
Co313      Co  0.05685799  0.04429983  0.76025314     1.51700
Co314      Co  0.03991904  0.50777093  0.74329678     1.51600
Co315      Co  0.06597600  0.49385346  0.79634726     1.51500
O316        O  0.07093004  0.49217683  0.76660472    -1.40500
C317        C  0.03251411  0.42036057  0.79256124     1.11100
C318        C  0.01297945  0.07368841  0.73227167     1.11100
C319        C  0.99960070  0.43996074  0.74675775     1.11100
C320        C  0.99915703  0.03451217  0.78836825     1.11100
N321        N  0.30148093  0.15233697  0.10853983    -0.35000
N322        N  0.36097238  0.14336294  0.13546338    -0.55600
N323        N  0.30746306  0.14638078  0.16827946    -0.35000
N324        N  0.24739049  0.15130367  0.14111506    -0.55600
C325        C  0.32964049  0.14544283  0.09572181     0.28500
C326        C  0.26937364  0.14960213  0.09863013     0.28600
C327        C  0.33787002  0.13576713  0.17746117     0.28500
C328        C  0.27784270  0.14018585  0.18051308     0.28500
C329        C  0.38189864  0.14767855  0.11903618     0.37200
C330        C  0.38488236  0.14365852  0.15029356     0.37200
C331        C  0.22463386  0.15939407  0.12659704     0.37200
C332        C  0.22765484  0.15516841  0.15800135     0.37200
C333        C  0.31529919  0.13871136  0.07737202    -0.20300
C334        C  0.27732698  0.14128995  0.07919989    -0.20300
C335        C  0.32762895  0.12393575  0.19596205    -0.20300
C336        C  0.28986146  0.12672264  0.19788204    -0.20300
C337        C  0.41933722  0.15046490  0.12348031    -0.21400
C338        C  0.42120982  0.14779028  0.14325868    -0.21400
C339        C  0.19020535  0.16828307  0.13434698    -0.21400
C340        C  0.19209159  0.16546192  0.15418612    -0.21400
C341        C  0.36798900  0.14683651  0.09999014    -0.16700
C342        C  0.23344228  0.15646026  0.10641565    -0.16700
C343        C  0.24037550  0.14699635  0.17666771    -0.16700
C344        C  0.37473247  0.13706753  0.16987345    -0.16700
H345        H  0.33061202  0.13276928  0.06402159     0.16200
H346        H  0.25783060  0.13776083  0.06748762     0.16200
H347        H  0.34546179  0.11410209  0.20697030     0.16200
H348        H  0.27316972  0.11941593  0.21063757     0.16200
H349        H  0.44293994  0.15345377  0.11351728     0.14500
H350        H  0.44646597  0.14832415  0.15149618     0.14500
H351        H  0.16599586  0.17549096  0.12651113     0.14500
H352        H  0.16972645  0.17013128  0.16460377     0.14500
H353        H  0.30429774  0.16234276  0.12261577     0.27700
H354        H  0.30746749  0.15975350  0.15520208     0.27700
N355        N  0.31802344  0.37962041  0.10079229    -0.35000
N356        N  0.26216295  0.40755154  0.12630743    -0.55600
N357        N  0.31843900  0.42170871  0.15668808    -0.35000
N358        N  0.37403708  0.39060663  0.13139847    -0.55600
C359        C  0.28726839  0.36771066  0.09099591     0.28500
C360        C  0.34644609  0.36050571  0.09332613     0.28600
C361        C  0.28660444  0.42765360  0.16689877     0.28500
C362        C  0.34579146  0.41783466  0.16966345     0.28500
C363        C  0.24176633  0.40353502  0.11003394     0.37200
C364        C  0.24221216  0.42754108  0.13925309     0.37200
C365        C  0.39646988  0.38201279  0.11612182     0.37200
C366        C  0.39644453  0.40197720  0.14612835     0.37200
C367        C  0.29639209  0.34091048  0.07710020    -0.20300
C368        C  0.33374851  0.33639995  0.07853278    -0.20300
C369        C  0.29389059  0.42810231  0.18663475    -0.20300
C370        C  0.33114706  0.42192371  0.18836749    -0.20300
C371        C  0.20856996  0.42086154  0.11262417    -0.21400
C372        C  0.20885888  0.43622209  0.13111064    -0.21400
C373        C  0.43340342  0.38733740  0.12120771    -0.21400
C374        C  0.43339405  0.39982909  0.14027410    -0.21400
C375        C  0.25165369  0.38177505  0.09357493    -0.16700
C376        C  0.38401329  0.36655795  0.09824525    -0.16700
C377        C  0.38384086  0.41237768  0.16502631    -0.16700
C378        C  0.25169271  0.43461562  0.15888676    -0.16700
H379        H  0.27815725  0.32637058  0.06683423     0.16200
H380        H  0.34978195  0.31764219  0.06955761     0.16200
H381        H  0.27440851  0.43260766  0.19857746     0.16200
H382        H  0.34579777  0.42071875  0.20187363     0.16200
H383        H  0.18627010  0.42176760  0.10240529     0.14500
H384        H  0.18655553  0.45123479  0.13793674     0.14500
H385        H  0.45775756  0.38197765  0.11226031     0.14500
H386        H  0.45777047  0.40632446  0.14886096     0.14500
H387        H  0.32079430  0.40259825  0.11020945     0.27700
H388        H  0.32181007  0.42416484  0.14175303     0.27700
C389        C  0.20118210  0.11431999  0.83765972    -0.16900
C390        C  0.17598064  0.11571429  0.82648415     0.07100
C391        C  0.14558850  0.11003497  0.81395463     0.09000
C392        C  0.12095703  0.09632422  0.80412761    -0.17800
C393        C  0.38623324  0.07134053  0.83158728    -0.16900
C394        C  0.40843908  0.06315716  0.81901910     0.07100
C395        C  0.43682660  0.05303710  0.80574781     0.09000
C396        C  0.46379280  0.04436200  0.79634082    -0.17800
C397        C  0.16469346  0.43207184  0.79781987    -0.16900
C398        C  0.18807860  0.41819077  0.80726913     0.07100
C399        C  0.21324070  0.40116403  0.81945578     0.09000
C400        C  0.23396534  0.38648517  0.83018577    -0.17800
C401        C  0.50688927  0.39277951  0.80066733    -0.16900
C402        C  0.48146976  0.37560008  0.80859217     0.07100
C403        C  0.44957143  0.36130599  0.81873772     0.09000
C404        C  0.42218544  0.35238898  0.82826520    -0.17800
C405        C  0.20353946  0.16051975  0.09283133    -0.16900
C406        C  0.17851672  0.16531950  0.08186601     0.07100
C407        C  0.14966121  0.17350864  0.06918279     0.09000
C408        C  0.12665061  0.18429044  0.05839195    -0.17800
C409        C  0.39521094  0.14781561  0.08404813    -0.16900
C410        C  0.42104372  0.15171807  0.07264366     0.07100
C411        C  0.45292550  0.16095511  0.06101948     0.09000
C412        C  0.47906824  0.17417231  0.05180167    -0.17800
C413        C  0.15635574  0.32198724  0.04337590    -0.16900
C414        C  0.17781441  0.34011535  0.05360374     0.07100
C415        C  0.20220361  0.35838288  0.06715133     0.09000
C416        C  0.22369021  0.37095134  0.07922203    -0.17800
C417        C  0.45823142  0.31077220  0.04014889    -0.16900
C418        C  0.44197350  0.32722717  0.05275579     0.07100
C419        C  0.42668310  0.34359238  0.06955382     0.09000
C420        C  0.41062625  0.35514434  0.08371735    -0.17800
C421        C  0.13927366  0.28072647  0.95633004    -0.16900
C422        C  0.16213214  0.29157208  0.94452962     0.07100
C423        C  0.19158344  0.30088436  0.93153608     0.09000
C424        C  0.21745641  0.30770736  0.92064237    -0.17800
C425        C  0.49057725  0.27994601  0.95417861    -0.16900
C426        C  0.46707525  0.28870649  0.94323981     0.07100
C427        C  0.43627422  0.29462868  0.93159829     0.09000
C428        C  0.41011523  0.29830059  0.92131802    -0.17800
C429        C  0.15701225  0.15185540  0.97997497    -0.16900
C430        C  0.17275041  0.13291901  0.96813363     0.07100
C431        C  0.19029729  0.11661008  0.95187641     0.09000
C432        C  0.20795390  0.10771594  0.93764815    -0.17800
C433        C  0.39902794  0.10437380  0.93113139    -0.16900
C434        C  0.42041258  0.11557701  0.94359454     0.07100
C435        C  0.44246135  0.13287257  0.95853580     0.09000
C436        C  0.46055596  0.15073243  0.97052955    -0.17800
C437        C  0.41144559  0.41739585  0.18033218    -0.16900
C438        C  0.43567700  0.42260440  0.19226759     0.07100
C439        C  0.46455205  0.43144675  0.20577144     0.09000
C440        C  0.48805672  0.44351252  0.21700743    -0.17800
C441        C  0.22255104  0.44816087  0.17164473    -0.16900
C442        C  0.19584216  0.45870647  0.18066484     0.07100
C443        C  0.16389805  0.47029368  0.19088216     0.09000
C444        C  0.13836781  0.47962989  0.20118835    -0.17800
C445        C  0.40374236  0.12738980  0.18269013    -0.16900
C446        C  0.42653267  0.11571707  0.19312466     0.07100
C447        C  0.45156055  0.09859719  0.20497215     0.09000
C448        C  0.47226177  0.08222526  0.21474219    -0.17800
C449        C  0.14939531  0.10302833  0.23305797    -0.16900
C450        C  0.16866955  0.12065193  0.22149895     0.07100
C451        C  0.19211987  0.13466103  0.20613432     0.09000
C452        C  0.21315650  0.14231907  0.19262806    -0.17800
C453        C  0.13941703  0.15913819  0.68212805    -0.16900
C454        C  0.13777300  0.13534673  0.69449722     0.07100
C455        C  0.13412662  0.10664486  0.70862467     0.09000
C456        C  0.12637166  0.08260524  0.72044453    -0.17800
C457        C  0.10235777  0.34707468  0.67042362    -0.16900
C458        C  0.09616433  0.37444446  0.68012914     0.07100
C459        C  0.09133457  0.40667824  0.69171621     0.09000
C460        C  0.08727576  0.43199005  0.70318529    -0.17800
C461        C  0.99445562  0.09992120  0.72119128    -0.16900
C462        C  0.97942696  0.12097089  0.71099605     0.07100
C463        C  0.46282636  0.14527410  0.69849643     0.09000
C464        C  0.44995501  0.16679666  0.68771443    -0.17800
C465        C  0.42743362  0.35645064  0.69675747    -0.16900
C466        C  0.43620031  0.37776534  0.71005962     0.07100
C467        C  0.95117141  0.40100179  0.72537991     0.09000
C468        C  0.96937932  0.41973692  0.73699630    -0.17800
C469        C  0.40316649  0.16467774  0.59109402    -0.16900
C470        C  0.40031932  0.13921873  0.57907070     0.07100
C471        C  0.39413267  0.10847212  0.56564667     0.09000
C472        C  0.38393429  0.08303075  0.55465923    -0.17800
C473        C  0.38517847  0.35750894  0.59911034    -0.16900
C474        C  0.37850565  0.38240035  0.58844943     0.07100
C475        C  0.36909228  0.41117928  0.57608490     0.09000
C476        C  0.35886529  0.43395766  0.56504699    -0.17800
C477        C  0.21353790  0.16177417  0.58811807    -0.16900
C478        C  0.22577103  0.14404191  0.57467788     0.07100
C479        C  0.24073715  0.12603410  0.55825207     0.09000
C480        C  0.25479412  0.10893984  0.54510924    -0.17800
C481        C  0.18346810  0.34603606  0.57939241    -0.16900
C482        C  0.19431991  0.36752394  0.56688952     0.07100
C483        C  0.21041043  0.39212029  0.55270846     0.09000
C484        C  0.22750767  0.41354981  0.54199476    -0.17800
C485        C  0.19833832  0.14947296  0.33273828    -0.16900
C486        C  0.19510149  0.12346520  0.32135729     0.07100
C487        C  0.18568697  0.09290398  0.30880583     0.09000
C488        C  0.17085062  0.06814537  0.29918606    -0.17800
C489        C  0.12909528  0.41026838  0.29668459    -0.16900
C490        C  0.14082786  0.38590938  0.30637687     0.07100
C491        C  0.15476657  0.35936267  0.31897804     0.09000
C492        C  0.16618190  0.33790383  0.33050302    -0.17800
C493        C  0.24821238  0.08198646  0.46471854    -0.16900
C494        C  0.23717297  0.10622365  0.45457898     0.07100
C495        C  0.22931001  0.13674515  0.44260237     0.09000
C496        C  0.22419505  0.16197517  0.43162721    -0.17800
C497        C  0.26521377  0.43603073  0.45863481    -0.16900
C498        C  0.25096007  0.41325510  0.44747177     0.07100
C499        C  0.23732275  0.38337191  0.43526205     0.09000
C500        C  0.22753965  0.35684170  0.42506170    -0.17800
C501        C  0.51556658  0.11215502  0.29153355    -0.16900
C502        C  0.50244165  0.13717594  0.30115170     0.07100
C503        C  0.48708456  0.16363920  0.31436044     0.09000
C504        C  0.47491876  0.18533136  0.32639062    -0.17800
C505        C  0.43806945  0.37230213  0.32640501    -0.16900
C506        C  0.44035949  0.39814168  0.31555374     0.07100
C507        C  0.45015673  0.42989693  0.30460309     0.09000
C508        C  0.46651529  0.45551593  0.29666062    -0.17800
C509        C  0.42215875  0.18423551  0.42438682    -0.16900
C510        C  0.41136118  0.16318129  0.43690084     0.07100
C511        C  0.39576059  0.14007635  0.45154564     0.09000
C512        C  0.38077876  0.11967202  0.46329173    -0.17800
C513        C  0.42763314  0.37665840  0.42653930    -0.16900
C514        C  0.42229062  0.39982333  0.43918976     0.07100
C515        C  0.41241582  0.42599819  0.45387767     0.09000
C516        C  0.39942969  0.44705869  0.46585865    -0.17800
N517        N  0.43565104  0.78048269  0.40578439    -0.35000
N518        N  0.44607765  0.72229713  0.37566281    -0.55600
N519        N  0.45104069  0.77847101  0.34655052    -0.35000
N520        N  0.43701377  0.83598162  0.37639630    -0.55600
C521        C  0.42425000  0.74975550  0.41567143     0.28500
C522        C  0.42507268  0.81044955  0.41648075     0.28600
C523        C  0.45240147  0.74735337  0.33508310     0.28500
C524        C  0.44160169  0.80660284  0.33522340     0.28500
C525        C  0.44524623  0.70124382  0.39167962     0.37200
C526        C  0.45954000  0.70110953  0.36082064     0.37200
C527        C  0.43918406  0.85914521  0.39217370     0.37200
C528        C  0.44206229  0.85755686  0.36069023     0.37200
C529        C  0.40665989  0.76047316  0.43297402    -0.20300
C530        C  0.40743632  0.79875558  0.43353191    -0.20300
C531        C  0.44422209  0.75585257  0.31616788    -0.20300
C532        C  0.43711832  0.79317710  0.31627918    -0.20300
C533        C  0.45760646  0.66616751  0.38694903    -0.21400
C534        C  0.46701350  0.66619606  0.36743343    -0.21400
C535        C  0.44544369  0.89567877  0.38649019    -0.21400
C536        C  0.44708472  0.89471510  0.36653106    -0.21400
C537        C  0.43132628  0.71251429  0.41017979    -0.16700
C538        C  0.43179417  0.84805185  0.41144272    -0.16700
C539        C  0.44004297  0.84451909  0.34117866    -0.16700
C540        C  0.46226547  0.71195241  0.34116666    -0.16700
H541        H  0.39482235  0.74261951  0.44419811     0.16200
H542        H  0.39602445  0.81598467  0.44510383     0.16200
H543        H  0.44336664  0.73709283  0.30360630     0.16200
H544        H  0.43019814  0.80881624  0.30373942     0.16200
H545        H  0.45951971  0.64296682  0.39654545     0.14500
H546        H  0.47721297  0.64287506  0.35898941     0.14500
H547        H  0.44761980  0.92049871  0.39572692     0.14500
H548        H  0.45122333  0.91870267  0.35738161     0.14500
H549        H  0.45300787  0.78117243  0.39357828     0.27700
H550        H  0.46038368  0.78121881  0.36063445     0.27700
N551        N  0.18976227  0.74721949  0.35139429    -0.35000
N552        N  0.20759445  0.69507732  0.38168996    -0.55600
N553        N  0.21297440  0.75601524  0.40984101    -0.35000
N554        N  0.19867658  0.80863806  0.37893043    -0.55600
C555        C  0.19664007  0.71666483  0.34025271     0.28500
C556        C  0.18682180  0.77608985  0.33933593     0.28600
C557        C  0.22492440  0.72786041  0.42052547     0.28500
C558        C  0.22521800  0.78870310  0.41833058     0.28500
C559        C  0.19960115  0.67074044  0.36687626     0.37200
C560        C  0.20727377  0.67491976  0.39806537     0.37200
C561        C  0.18348145  0.82709354  0.36439616     0.37200
C562        C  0.20096781  0.83255475  0.39440447     0.37200
C563        C  0.19776474  0.72621624  0.32079967    -0.20300
C564        C  0.19130070  0.76363231  0.32022392    -0.20300
C565        C  0.24440303  0.74284303  0.43624681    -0.20300
C566        C  0.24481462  0.78113753  0.43480478    -0.20300
C567        C  0.19448214  0.63492322  0.37385330    -0.21400
C568        C  0.19910702  0.63759634  0.39359324    -0.21400
C569        C  0.17626156  0.86302886  0.37066017    -0.21400
C570        C  0.18758469  0.86657840  0.38959172    -0.21400
C571        C  0.19875293  0.67993095  0.34702141    -0.16700
C572        C  0.17878897  0.81294741  0.34514859    -0.16700
C573        C  0.21730130  0.82504107  0.41232980    -0.16700
C574        C  0.21787868  0.68912204  0.41659914    -0.16700
H575        H  0.20198654  0.70795862  0.30827061     0.16200
H576        H  0.19002405  0.77979860  0.30721479     0.16200
H577        H  0.25724983  0.72775965  0.44749950     0.13400
H578        H  0.25777760  0.80113808  0.44489045     0.16200
H579        H  0.18819819  0.60945220  0.36557522     0.14500
H580        H  0.19746437  0.61453008  0.40344309     0.14500
H581        H  0.16483911  0.88471610  0.36233625     0.14500
H582        H  0.18629238  0.89145623  0.39873961     0.14500
H583        H  0.18320346  0.74744693  0.36616263     0.27700
H584        H  0.19434196  0.75309864  0.39854257     0.27700
O585        O  0.37606694  0.96506228  0.49662020    -0.78600
O586        O  0.37061337  0.55072321  0.52482921    -0.78600
O587        O  0.34923422  0.56187002  0.46813312    -0.78600
O588        O  0.31262288  0.97130151  0.55432855    -0.78500
O589        O  0.35742922  0.59926042  0.49392958    -0.78700
O590        O  0.35837599  0.95901885  0.53423204    -0.78600
O591        O  0.32981315  0.54630092  0.54949589    -0.78600
O592        O  0.35531632  0.99117526  0.47151798    -0.78600
C593        C  0.37702113  0.96947085  0.47859010     1.11100
C594        C  0.36180551  0.55687769  0.54265735     1.11000
C595        C  0.36192456  0.59285671  0.47559149     1.11100
C596        C  0.34326640  0.95681706  0.55078946     1.11000
O597        O  0.28383385  0.92859312  0.52551628    -0.78600
O598        O  0.28557407  0.57470764  0.49165747    -0.78600
O599        O  0.29102049  0.99316703  0.47186837    -0.78600
O600        O  0.25873053  0.55100086  0.53030984    -0.78600
O601        O  0.30554131  0.59099595  0.52603690    -0.78600
O602        O  0.30045517  0.93890820  0.48639958    -0.78600
O603        O  0.24679322  0.97449453  0.53387617    -0.78500
O604        O  0.28152893  0.52818149  0.47199233    -0.78600
Co605      Co  0.32853723  0.95147558  0.51068460     1.51500
Co606      Co  0.32968691  0.55704704  0.50658495     1.51700
Co607      Co  0.32750380  0.52698759  0.48766700     1.51600
Co608      Co  0.28782359  0.51098434  0.54013685     1.51500
O609        O  0.30801495  0.50339713  0.51242217    -1.40500
C610        C  0.25312095  0.94006210  0.53251571     1.11100
C611        C  0.27065372  0.55997244  0.47686449     1.11100
C612        C  0.28611975  0.95730172  0.47313042     1.11100
C613        C  0.27296235  0.58345379  0.53248926     1.11100
N614        N  0.39870673  0.76031978  0.61504693    -0.35000
N615        N  0.40682400  0.81771860  0.64675735    -0.55600
N616        N  0.42354573  0.76088595  0.67341710    -0.35000
N617        N  0.41882937  0.70415893  0.64135662    -0.55600
C618        C  0.39807483  0.79199289  0.60482346     0.28500
C619        C  0.40354995  0.73154112  0.60214834     0.28600
C620        C  0.43204872  0.79172491  0.68455198     0.28500
C621        C  0.43935842  0.73195173  0.68158844     0.28500
C622        C  0.39405886  0.83881061  0.63261953     0.37200
C623        C  0.40686728  0.83893847  0.66335163     0.37200
C624        C  0.41020462  0.68137051  0.62595029     0.37200
C625        C  0.42390851  0.68193332  0.65651550     0.37200
C626        C  0.40188384  0.78311849  0.58512540    -0.20300
C627        C  0.40528096  0.74509986  0.58345511    -0.20300
C628        C  0.95276091  0.78201280  0.70020686    -0.20300
C629        C  0.95741658  0.74440470  0.69833305    -0.20300
C630        C  0.38607832  0.87371152  0.64031420    -0.21400
C631        C  0.39423335  0.87377063  0.65973665    -0.21400
C632        C  0.40993159  0.64446493  0.63137116    -0.21400
C633        C  0.41864159  0.64481691  0.65070005    -0.21400
C634        C  0.39237753  0.82838420  0.61261090    -0.16700
C635        C  0.40534985  0.69330863  0.60676289    -0.16700
C636        C  0.43662848  0.69431695  0.67497485    -0.16700
C637        C  0.42100491  0.82824019  0.68128252    -0.16700
H638        H  0.40207909  0.80206922  0.57313904     0.16200
H639        H  0.40870058  0.72926934  0.56999161     0.16200
H640        H  0.96362286  0.80013317  0.71176387     0.16200
H641        H  0.97242540  0.72809595  0.70824631     0.16200
H642        H  0.37610677  0.89703515  0.63265711     0.14500
H643        H  0.39181335  0.89700651  0.66993472     0.14500
H644        H  0.40472220  0.61981691  0.62227599     0.14500
H645        H  0.42150018  0.62047274  0.65938613     0.14500
H646        H  0.39247678  0.75826349  0.62979370     0.27700
H647        H  0.40512984  0.75880251  0.66201530     0.27700
N648        N  0.12877356  0.75025069  0.65675278    -0.35000
N649        N  0.14430311  0.80682502  0.62601325    -0.55600
N650        N  0.18060062  0.75300325  0.60281579    -0.35000
N651        N  0.16846554  0.69712423  0.63373942    -0.55600
C652        C  0.11979422  0.78202121  0.66633731     0.28500
C653        C  0.13218830  0.72358038  0.67022243     0.28600
C654        C  0.19117670  0.78402919  0.59285775     0.28500
C655        C  0.20290041  0.72593190  0.59667121     0.28500
C656        C  0.12230458  0.82610540  0.63827157     0.37200
C657        C  0.14959941  0.82734666  0.60982431     0.37200
C658        C  0.15612468  0.67416697  0.64806695     0.37200
C659        C  0.18110129  0.67514508  0.61908516     0.37200
C660        C  0.11614093  0.77509881  0.68609479    -0.20300
C661        C  0.12386044  0.73832776  0.68851680    -0.20300
C662        C  0.22049781  0.77644413  0.58022122    -0.20300
C663        C  0.22787103  0.73976324  0.58259535    -0.20300
C664        C  0.11352684  0.85915975  0.62976366    -0.21400
C665        C  0.13082594  0.85989131  0.61175034    -0.21400
C666        C  0.16157833  0.63742274  0.64260501    -0.21400
C667        C  0.17718171  0.63801980  0.62417857    -0.21400
C668        C  0.11397188  0.81687432  0.65782703    -0.16700
C669        C  0.14209942  0.68622198  0.66640320    -0.16700
C670        C  0.19881115  0.68823611  0.60187380    -0.16700
C671        C  0.17385856  0.81837467  0.59418713    -0.16700
H672        H  0.10879887  0.79457848  0.69764058     0.16200
H673        H  0.12371429  0.72419461  0.70222807     0.16200
H674        H  0.23482003  0.79521290  0.57015713     0.16200
H675        H  0.24892297  0.72480338  0.57463322     0.16200
H676        H  0.09720321  0.88102923  0.63610253     0.14500
H677        H  0.13048025  0.88222988  0.60150368     0.14500
H678        H  0.15515045  0.61279853  0.65103467     0.14500
H679        H  0.18549501  0.61394938  0.61568725     0.14500
H680        H  0.12967081  0.74661180  0.64174001     0.27700
H681        H  0.15660735  0.74867321  0.61129947     0.27700
O682        O  0.02856188  0.97327128  0.29355816    -0.78600
O683        O  0.09864134  0.02097106  0.21729675    -0.78600
O684        O  0.50651403  0.96861719  0.24743799    -0.78600
O685        O  0.11965385  0.94426547  0.26863338    -0.78500
O686        O  0.03425136  0.99091771  0.22299999    -0.78700
O687        O  0.10377013  0.96879873  0.29735627    -0.78600
O688        O  0.11091603  0.96951919  0.23146485    -0.78600
O689        O  0.48919960  0.00640653  0.27803171    -0.78600
C690        C  0.99575577  0.97986751  0.28914397     1.11100
C691        C  0.11352203  0.98973589  0.21675852     1.11000
C692        C  0.01171781  0.96667787  0.22966682     1.11100
C693        C  0.11620294  0.94223314  0.28694718     1.11000
O694        O  0.11042197  0.54926994  0.29303671    -0.78600
O695        O  0.03213108  0.56433699  0.22171700    -0.78600
O696        O  0.53313217  0.57194215  0.26554538    -0.78600
O697        O  0.14313129  0.54213063  0.24365806    -0.78600
O698        O  0.09396489  0.57647249  0.24678256    -0.78600
O699        O  0.03611077  0.55273104  0.29524015    -0.78600
O700        O  0.15360513  0.51530152  0.27974996    -0.78500
O701        O  0.48427552  0.54212478  0.24017892    -0.78600
Co702      Co  0.07016256  0.01070738  0.29259645     1.51500
Co703      Co  0.06104522  0.03334922  0.23829381     1.51700
Co704      Co  0.02330952  0.01997212  0.25546543     1.51600
Co705      Co  0.12810026  0.99299045  0.25607256     1.51500
O706        O  0.07409600  0.00443836  0.26291920    -1.40500
C707        C  0.14400437  0.54314087  0.28997600     1.11100
C708        C  0.99706618  0.56220232  0.22595751     1.11100
C709        C  0.02975089  0.57797438  0.28359582     1.11100
C710        C  0.12825065  0.57344263  0.24276966     1.11100
O711        O  0.46870041  0.70110266  0.99311477    -0.78600
O712        O  0.09924421  0.69408929  0.02836396    -0.78600
O713        O  0.09955709  0.67654276  0.98617286    -0.78600
O714        O  0.01541760  0.72911772  0.04854436    -0.78500
O715        O  0.14964822  0.70555758  0.99943073    -0.78700
O716        O  0.51336902  0.68936481  0.02365928    -0.78600
O717        O  0.09172664  0.73501687  0.05200491    -0.78600
O718        O  0.01900630  0.67467407  0.98128666    -0.78600
C719        C  0.98335926  0.67608494  0.98247839     1.11100
C720        C  0.10351782  0.70430846  0.04588747     1.11000
C721        C  0.13473789  0.67878132  0.98939019     1.11100
C722        C  0.00535994  0.69758555  0.04114144     1.11000
O723        O  0.47632742  0.75826054  0.02235799    -0.78600
O724        O  0.12102535  0.77084303  0.98860992    -0.78600
O725        O  0.03377979  0.73868810  0.96500295    -0.78600
O726        O  0.09504937  0.80592029  0.03507891    -0.78600
O727        O  0.13816829  0.76665890  0.02625162    -0.78600
O728        O  0.50282964  0.76978277  0.98655236    -0.78600
O729        O  0.01861212  0.80136673  0.03143322    -0.78500
O730        O  0.09417149  0.73620365  0.96628924    -0.78600
Co731      Co  0.00997030  0.72934409  0.00477245     1.51500
Co732      Co  0.10794860  0.73243359  0.00820043     1.51700
Co733      Co  0.06002329  0.71537471  0.98651041     1.51600
Co734      Co  0.05514561  0.76704407  0.04007065     1.51500
O735        O  0.05879218  0.75056497  0.01162188    -1.40500
C736        C  0.98513516  0.78995178  0.02996197     1.11100
C737        C  0.11662044  0.76265723  0.97089101     1.11100
C738        C  0.01102803  0.76336997  0.96902082     1.11100
C739        C  0.12883050  0.79763377  0.03389225     1.11100
N740        N  0.31502339  0.81036925  0.90203598    -0.35000
N741        N  0.37491811  0.82314859  0.87391906    -0.55600
N742        N  0.32348183  0.85065145  0.84645719    -0.35000
N743        N  0.26360769  0.84064569  0.87496045    -0.55600
C744        C  0.34456072  0.80825140  0.91370586     0.28500
C745        C  0.28447370  0.81320238  0.91360798     0.28600
C746        C  0.35648434  0.85997185  0.83760594     0.28500
C747        C  0.29752289  0.87130630  0.83858345     0.28500
C748        C  0.39326182  0.80574651  0.88763021     0.37200
C749        C  0.39710030  0.82352370  0.85784934     0.37200
C750        C  0.23884649  0.82659252  0.88824605     0.37200
C751        C  0.24369772  0.85111334  0.85977153     0.37200
C752        C  0.33247519  0.80901977  0.93300528    -0.20300
C753        C  0.29444580  0.81181827  0.93294197    -0.20300
C754        C  0.35135662  0.88640159  0.82370453    -0.20300
C755        C  0.31416738  0.89356611  0.82432891    -0.20300
C756        C  0.42718141  0.79470434  0.88021540    -0.21400
C757        C  0.42955379  0.80584527  0.86128761    -0.21400
C758        C  0.20298279  0.82840909  0.88151878    -0.21400
C759        C  0.20606524  0.84416119  0.86353570    -0.21400
C760        C  0.38163718  0.80359838  0.90725151    -0.16700
C761        C  0.24780755  0.81552184  0.90705213    -0.16700
C762        C  0.25897994  0.86897566  0.84313047    -0.16700
C763        C  0.39068979  0.84404825  0.84119993    -0.16700
H764        H  0.34920453  0.80721499  0.94577775     0.16200
H765        H  0.27625693  0.81293151  0.94567262     0.16200
H766        H  0.37220895  0.89911675  0.81404352     0.16200
H767        H  0.30087085  0.91280865  0.81521193     0.16200
H768        H  0.44836428  0.78089408  0.88779360     0.14500
H769        H  0.45307420  0.80257314  0.85142293     0.14500
H770        H  0.17720824  0.82009003  0.88897533     0.14500
H771        H  0.18321821  0.85009098  0.85435664     0.14500
H772        H  0.31487745  0.80633632  0.88704182     0.27700
H773        H  0.31842026  0.82859970  0.85579340     0.27700
N774        N  0.29529870  0.59261855  0.85482839    -0.35000
N775        N  0.24193388  0.60330961  0.88632564    -0.55600
N776        N  0.30059527  0.59493719  0.91448348    -0.35000
N777        N  0.35459871  0.58860543  0.88293262    -0.55600
C778        C  0.26678403  0.60485780  0.84463229     0.28500
C779        C  0.32529541  0.59185096  0.84268542     0.28600
C780        C  0.27207088  0.60447101  0.92638096     0.28500
C781        C  0.33232391  0.60200416  0.92444552     0.28500
C782        C  0.21854826  0.60398056  0.87128587     0.37200
C783        C  0.22049157  0.60045438  0.90263008     0.37200
C784        C  0.37367207  0.57823260  0.86670817     0.37200
C785        C  0.37772181  0.58614785  0.89802462     0.37200
C786        C  0.27880431  0.61149536  0.82566462    -0.20300
C787        C  0.31563111  0.60305955  0.82440359    -0.20300
C788        C  0.28566465  0.61640076  0.94432205    -0.20300
C789        C  0.32356207  0.61503718  0.94306775    -0.20300
C790        C  0.18197667  0.60198864  0.87810121    -0.21400
C791        C  0.18321042  0.59960872  0.89796309    -0.21400
C792        C  0.40923678  0.56914801  0.87155963    -0.21400
C793        C  0.41190057  0.57458993  0.89136272    -0.21400
C794        C  0.22974496  0.60801030  0.85160391    -0.16700
C795        C  0.36078207  0.58016302  0.84746815    -0.16700
C796        C  0.36895898  0.59631225  0.91752245    -0.16700
C797        C  0.23404506  0.60248336  0.92171851    -0.16700
H798        H  0.26262008  0.62099205  0.81387244     0.16200
H799        H  0.33333143  0.60514071  0.81150217     0.16200
H800        H  0.27002257  0.62577104  0.95698423     0.16200
H801        H  0.34245195  0.62283782  0.95464401     0.16200
H802        H  0.15701928  0.60246387  0.86967831     0.14500
H803        H  0.15941383  0.59833740  0.90787137     0.14500
H804        H  0.43138435  0.56063693  0.86178827     0.14500
H805        H  0.43620159  0.57062199  0.89987593     0.14500
H806        H  0.29366278  0.58147546  0.86857751     0.27700
H807        H  0.29795055  0.58155398  0.90102330     0.27700
O808        O  0.10235083  0.95659609  0.73364664    -0.78600
O809        O  0.07140913  0.57647864  0.78359743    -0.78600
O810        O  0.08118230  0.53525379  0.72758950    -0.78600
O811        O  0.10747271  0.95928128  0.79974497    -0.78500
O812        O  0.10781095  0.56082162  0.75157043    -0.78700
O813        O  0.13026733  0.94503544  0.77036945    -0.78600
O814        O  0.10393343  0.53487015  0.79781853    -0.78600
O815        O  0.05002431  0.97189018  0.72133274    -0.78600
C816        C  0.08055011  0.95608624  0.71954756     1.11100
C817        C  0.09747726  0.56833705  0.79467288     1.11000
C818        C  0.10656485  0.55721624  0.73366729     1.11100
C819        C  0.13312803  0.94696154  0.78871564     1.11000
O820        O  0.05995682  0.91128504  0.78197670    -0.78600
O821        O  0.03461085  0.58513860  0.74616515    -0.78600
O822        O  0.99714197  0.97407361  0.75168384    -0.78600
O823        O  0.02454637  0.52820735  0.79989985    -0.78600
O824        O  0.00547064  0.53410864  0.77034801    -0.78600
O825        O  0.03072821  0.92464897  0.74676289    -0.78600
O826        O  0.02701476  0.95387875  0.79654240    -0.78500
O827        O  0.00857388  0.53863854  0.72793237    -0.78600
Co828      Co  0.08080314  0.93817449  0.75845205     1.51500
Co829      Co  0.05685798  0.54429977  0.76025313     1.51700
Co830      Co  0.03991886  0.00777098  0.74329692     1.51600
Co831      Co  0.06597600  0.99385345  0.79634730     1.51500
O832        O  0.07093002  0.99217686  0.76660477    -1.40500
C833        C  0.03251406  0.92036059  0.79256129     1.11100
C834        C  0.01297976  0.57368865  0.73227166     1.11100
C835        C  0.99960018  0.93996120  0.74675813     1.11100
C836        C  0.99915691  0.53451189  0.78836814     1.11100
N837        N  0.30148123  0.65233673  0.10853955    -0.35000
N838        N  0.36097280  0.64336327  0.13546314    -0.55600
N839        N  0.30746371  0.64638210  0.16827941    -0.35000
N840        N  0.24739105  0.65130469  0.14111497    -0.55600
C841        C  0.32964068  0.64544229  0.09572161     0.28500
C842        C  0.26937389  0.64960191  0.09863000     0.28600
C843        C  0.33787062  0.63576816  0.17746098     0.28500
C844        C  0.27784336  0.64018723  0.18051296     0.28500
C845        C  0.38189900  0.64767835  0.11903587     0.37200
C846        C  0.38488287  0.64365896  0.15029329     0.37200
C847        C  0.22463439  0.65939493  0.12659693     0.37200
C848        C  0.22765552  0.65516989  0.15800127     0.37200
C849        C  0.31529924  0.63871051  0.07737185    -0.20300
C850        C  0.27732705  0.64128929  0.07919977    -0.20300
C851        C  0.32762953  0.62393663  0.19596184    -0.20300
C852        C  0.28986208  0.62672373  0.19788188    -0.20300
C853        C  0.41933761  0.65046451  0.12347994    -0.21400
C854        C  0.42121030  0.64779031  0.14325833    -0.21400
C855        C  0.19020602  0.66828438  0.13434687    -0.21400
C856        C  0.19209235  0.66546361  0.15418603    -0.21400
C857        C  0.36798924  0.64683596  0.09998985    -0.16700
C858        C  0.23344262  0.65646046  0.10641552    -0.16700
C859        C  0.24037613  0.64699775  0.17666764    -0.16700
C860        C  0.37473305  0.63706818  0.16987321    -0.16700
H861        H  0.33061196  0.63276812  0.06402142     0.16200
H862        H  0.25783057  0.63776005  0.06748754     0.16200
H863        H  0.34546233  0.61410263  0.20697002     0.16200
H864        H  0.27317032  0.61941689  0.21063740     0.16200
H865        H  0.44294029  0.65345293  0.11351686     0.14500
H866        H  0.44646650  0.64832409  0.15149578     0.14500
H867        H  0.16599654  0.67549224  0.12651101     0.14500
H868        H  0.16972730  0.67013330  0.16460369     0.14500
H869        H  0.30429825  0.66234302  0.12261586     0.27700
H870        H  0.30746818  0.65975527  0.15520167     0.27700
N871        N  0.31802316  0.87962002  0.10079227    -0.35000
N872        N  0.26216241  0.90755146  0.12630723    -0.55600
N873        N  0.31843807  0.92170881  0.15668799    -0.35000
N874        N  0.37403643  0.89060649  0.13139855    -0.55600
C875        C  0.28726814  0.86771022  0.09099588     0.28500
C876        C  0.34644573  0.86050493  0.09332631     0.28600
C877        C  0.28660347  0.92765386  0.16689862     0.28500
C878        C  0.34579055  0.91783527  0.16966340     0.28500
C879        C  0.24176596  0.90353486  0.11003369     0.37200
C880        C  0.24221132  0.92754078  0.13925286     0.37200
C881        C  0.39646936  0.88201221  0.11612202     0.37200
C882        C  0.39644375  0.90197729  0.14612844     0.37200
C883        C  0.29639177  0.84090963  0.07710038    -0.20300
C884        C  0.33374812  0.83639888  0.07853309    -0.20300
C885        C  0.29388963  0.92810321  0.18663461    -0.20300
C886        C  0.33114613  0.92192484  0.18836740    -0.20300
C887        C  0.20856944  0.92086114  0.11262384    -0.21400
C888        C  0.20885804  0.93622157  0.13111033    -0.21400
C889        C  0.43340284  0.88733676  0.12120800    -0.21400
C890        C  0.43339332  0.89982890  0.14027431    -0.21400
C891        C  0.25165352  0.88177482  0.09357475    -0.16700
C892        C  0.38401291  0.86655700  0.09824550    -0.16700
C893        C  0.38383996  0.91237820  0.16502632    -0.16700
C894        C  0.25169169  0.93461546  0.15888654    -0.16700
H895        H  0.27815692  0.82636955  0.06683448     0.16200
H896        H  0.34978150  0.81764075  0.06955812     0.16200
H897        H  0.27440754  0.93260885  0.19857727     0.16200
H898        H  0.34579686  0.92072038  0.20187357     0.16200
H899        H  0.18626965  0.92176704  0.10240491     0.14500
H900        H  0.18655451  0.95123406  0.13793639     0.14500
H901        H  0.45775706  0.88197670  0.11226071     0.14500
H902        H  0.45776967  0.90632434  0.14886121     0.14500
H903        H  0.32079403  0.90259809  0.11020930     0.27700
H904        H  0.32180915  0.92416445  0.14175290     0.27700
C905        C  0.20118238  0.61431960  0.83765948    -0.16900
C906        C  0.17598088  0.61571399  0.82648394     0.07100
C907        C  0.14558860  0.61003488  0.81395449     0.09000
C908        C  0.12095698  0.59632425  0.80412754    -0.17800
C909        C  0.38623345  0.57134015  0.83158714    -0.16900
C910        C  0.40843912  0.56315687  0.81901887     0.07100
C911        C  0.43682639  0.55303689  0.80574744     0.09000
C912        C  0.46379249  0.54436186  0.79634036    -0.17800
C913        C  0.16469304  0.93207098  0.79781977    -0.16900
C914        C  0.18807801  0.91818971  0.80726906     0.07100
C915        C  0.21324002  0.90116300  0.81945578     0.09000
C916        C  0.23396469  0.88648440  0.83018585    -0.17800
C917        C  0.50688934  0.89277977  0.80066782    -0.16900
C918        C  0.48146971  0.87560056  0.80859266     0.07100
C919        C  0.44957119  0.86130676  0.81873813     0.09000
C920        C  0.42218508  0.85238984  0.82826550    -0.17800
C921        C  0.20353969  0.66051976  0.09283123    -0.16900
C922        C  0.17851686  0.66531939  0.08186594     0.07100
C923        C  0.14966125  0.67350841  0.06918275     0.09000
C924        C  0.12665059  0.68429013  0.05839191    -0.17800
C925        C  0.39521112  0.64781484  0.08404781    -0.16900
C926        C  0.42104391  0.65171736  0.07264334     0.07100
C927        C  0.45292569  0.66095469  0.06101920     0.09000
C928        C  0.47906833  0.67417215  0.05180142    -0.17800
C929        C  0.15635595  0.82198678  0.04337572    -0.16900
C930        C  0.17781458  0.84011496  0.05360352     0.07100
C931        C  0.20220368  0.85838257  0.06715109     0.09000
C932        C  0.22369019  0.87095108  0.07922180    -0.17800
C933        C  0.45823105  0.81077135  0.04014896    -0.16900
C934        C  0.44197321  0.82722580  0.05275610     0.07100
C935        C  0.42668281  0.84359075  0.06955423     0.09000
C936        C  0.41062594  0.85514288  0.08371772    -0.17800
C937        C  0.13927374  0.78072675  0.95633014    -0.16900
C938        C  0.16213229  0.79157248  0.94452982     0.07100
C939        C  0.19158371  0.80088475  0.93153639     0.09000
C940        C  0.21745673  0.80770767  0.92064272    -0.17800
C941        C  0.49057799  0.77994501  0.95417807    -0.16900
C942        C  0.46707586  0.78870525  0.94323930     0.07100
C943        C  0.43627456  0.79462736  0.93159797     0.09000
C944        C  0.41011537  0.79829944  0.92131786    -0.17800
C945        C  0.15701230  0.65185523  0.97997468    -0.16900
C946        C  0.17275051  0.63291889  0.96813335     0.07100
C947        C  0.19029752  0.61660998  0.95187617     0.09000
C948        C  0.20795421  0.60771585  0.93764794    -0.17800
C949        C  0.39902827  0.60437371  0.93113112    -0.16900
C950        C  0.42041306  0.61557688  0.94359420     0.07100
C951        C  0.44246199  0.63287231  0.95853542     0.09000
C952        C  0.46055661  0.65073206  0.97052919    -0.17800
C953        C  0.41144465  0.91739663  0.18033220    -0.16900
C954        C  0.43567616  0.92260521  0.19226754     0.07100
C955        C  0.46455144  0.93144742  0.20577127     0.09000
C956        C  0.48805632  0.94351298  0.21700718    -0.17800
C957        C  0.22254984  0.94816058  0.17164443    -0.16900
C958        C  0.19584092  0.95870618  0.18066450     0.07100
C959        C  0.16389693  0.97029357  0.19088185     0.09000
C960        C  0.13836694  0.97962999  0.20118815    -0.17800
C961        C  0.40374291  0.62739002  0.18268983    -0.16900
C962        C  0.42653311  0.61571695  0.19312433     0.07100
C963        C  0.45156080  0.59859683  0.20497185     0.09000
C964        C  0.47226190  0.58222488  0.21474197    -0.17800
C965        C  0.14939546  0.60302831  0.23305759    -0.16900
C966        C  0.16866980  0.62065204  0.22149862     0.07100
C967        C  0.19212027  0.63466159  0.20613412     0.09000
C968        C  0.21315701  0.64232009  0.19262795    -0.17800
C969        C  0.13941751  0.65913740  0.68212771    -0.16900
C970        C  0.13777361  0.63534614  0.69449699     0.07100
C971        C  0.13412718  0.60664464  0.70862465     0.09000
C972        C  0.12637207  0.58260528  0.72044463    -0.17800
C973        C  0.10235766  0.84707388  0.67042418    -0.16900
C974        C  0.09616368  0.87444355  0.68012966     0.07100
C975        C  0.09133350  0.90667744  0.69171656     0.09000
C976        C  0.08727466  0.93198948  0.70318549    -0.17800
C977        C  0.99445618  0.59992176  0.72119134    -0.16900
C978        C  0.97942795  0.62097226  0.71099640     0.07100
C979        C  0.46282692  0.64527540  0.69849653     0.09000
C980        C  0.44995538  0.66679814  0.68771469    -0.17800
C981        C  0.42743295  0.85645195  0.69675734    -0.16900
C982        C  0.43619966  0.87776649  0.71005956     0.07100
C983        C  0.95117040  0.90100345  0.72538013     0.09000
C984        C  0.96937855  0.91973794  0.73699666    -0.17800
C985        C  0.40316660  0.66467751  0.59109440    -0.16900
C986        C  0.40031961  0.63921858  0.57907100     0.07100
C987        C  0.39413308  0.60847221  0.56564678     0.09000
C988        C  0.38393474  0.58303104  0.55465919    -0.17800
C989        C  0.38517853  0.85750879  0.59911007    -0.16900
C990        C  0.37850563  0.88240020  0.58844919     0.07100
C991        C  0.36909201  0.91117919  0.57608480     0.09000
C992        C  0.35886482  0.93395760  0.56504700    -0.17800
C993        C  0.21353541  0.66177379  0.58811717    -0.16900
C994        C  0.22576906  0.64404177  0.57467704     0.07100
C995        C  0.24073619  0.62603428  0.55825141     0.09000
C996        C  0.25479394  0.60894013  0.54510879    -0.17800
C997        C  0.18346820  0.84603662  0.57939277    -0.16900
C998        C  0.19431990  0.86752441  0.56688981     0.07100
C999        C  0.21041023  0.89212051  0.55270860     0.09000
C1000       C  0.22750733  0.91354984  0.54199475    -0.17800
C1001       C  0.19833887  0.64947252  0.33273843    -0.16900
C1002       C  0.19510214  0.62346495  0.32135734     0.07100
C1003       C  0.18568747  0.59290411  0.30880569     0.09000
C1004       C  0.17085088  0.56814583  0.29918582    -0.17800
C1005       C  0.12909582  0.91026782  0.29668428    -0.16900
C1006       C  0.14082901  0.88590891  0.30637642     0.07100
C1007       C  0.15476833  0.85936230  0.31897748     0.09000
C1008       C  0.16618394  0.83790356  0.33050244    -0.17800
C1009       C  0.24821176  0.58198641  0.46471875    -0.16900
C1010       C  0.23717206  0.60622350  0.45457920     0.07100
C1011       C  0.22930884  0.63674490  0.44260258     0.09000
C1012       C  0.22419381  0.66197490  0.43162740    -0.17800
C1013       C  0.26521401  0.93603076  0.45863470    -0.16900
C1014       C  0.25096030  0.91325509  0.44747167     0.07100
C1015       C  0.23732304  0.88337183  0.43526197     0.09000
C1016       C  0.22754008  0.85684160  0.42506161    -0.17800
C1017       C  0.51556593  0.61215517  0.29153358    -0.16900
C1018       C  0.50244076  0.63717594  0.30115177     0.07100
C1019       C  0.48708359  0.66363911  0.31436057     0.09000
C1020       C  0.47491790  0.68533131  0.32639078    -0.17800
C1021       C  0.43806870  0.87230197  0.32640476    -0.16900
C1022       C  0.44035900  0.89814144  0.31555344     0.07100
C1023       C  0.45015651  0.92989662  0.30460279     0.09000
C1024       C  0.46651522  0.95551557  0.29666035    -0.17800
C1025       C  0.42215967  0.68423637  0.42438714    -0.16900
C1026       C  0.41136194  0.66318187  0.43690101     0.07100
C1027       C  0.39576094  0.64007649  0.45154553     0.09000
C1028       C  0.38077879  0.61967196  0.46329145    -0.17800
C1029       C  0.42763312  0.87665913  0.42653914    -0.16900
C1030       C  0.42229098  0.89982394  0.43918971     0.07100
C1031       C  0.41241645  0.92599859  0.45387778     0.09000
C1032       C  0.39943028  0.94705887  0.46585885    -0.17800
N1033       N  0.93565166  0.28048103  0.40578526    -0.35000
N1034       N  0.94607932  0.22229681  0.37566288    -0.55600
N1035       N  0.95104266  0.27847200  0.34655135    -0.35000
N1036       N  0.93701374  0.33598112  0.37639779    -0.55600
C1037       C  0.92425195  0.24975337  0.41567226     0.28500
C1038       C  0.92507433  0.31044743  0.41648236     0.28600
C1039       C  0.95240393  0.24735487  0.33508350     0.28500
C1040       C  0.94160305  0.30660414  0.33522455     0.28500
C1041       C  0.94524574  0.20124216  0.39167922     0.37200
C1042       C  0.95954070  0.20110934  0.36082040     0.37200
C1043       C  0.93918309  0.35914419  0.39217543     0.37200
C1044       C  0.94206179  0.35755709  0.36069197     0.37200
C1045       C  0.90666428  0.26047033  0.43297568    -0.20300
C1046       C  0.90744054  0.29875269  0.43353404    -0.20300
C1047       C  0.94422447  0.25585479  0.31616842    -0.20300
C1048       C  0.93711997  0.29317915  0.31628019    -0.20300
C1049       C  0.95760349  0.16616513  0.38694799    -0.21400
C1050       C  0.96701135  0.16619460  0.36743251    -0.21400
C1051       C  0.94544153  0.39567812  0.38649230    -0.21400
C1052       C  0.94708289  0.39471524  0.36653319    -0.21400
C1053       C  0.93132657  0.21251222  0.41017964    -0.16700
C1054       C  0.93179403  0.34805000  0.41144438    -0.16700
C1055       C  0.94004328  0.34452006  0.34118026    -0.16700
C1056       C  0.96226750  0.21195348  0.34116666    -0.16700
H1057       H  0.89482831  0.24261625  0.44419998     0.16200
H1058       H  0.89603009  0.31598123  0.44510660     0.16200
H1059       H  0.94336907  0.23709554  0.30360664     0.16200
H1060       H  0.93019928  0.30881865  0.30374066     0.16200
H1061       H  0.95951460  0.14296333  0.39654390     0.14500
H1062       H  0.97720927  0.14287338  0.35898808     0.14500
H1063       H  0.94761686  0.42049778  0.39572927     0.14500
H1064       H  0.95122092  0.41870324  0.35738401     0.14500
H1065       H  0.95300641  0.28117126  0.39357861     0.27700
H1066       H  0.96038541  0.28121931  0.36063515     0.27700
N1067       N  0.68976229  0.24721870  0.35139396    -0.35000
N1068       N  0.70759545  0.19507720  0.38168979    -0.55600
N1069       N  0.71297527  0.25601563  0.40984060    -0.35000
N1070       N  0.69867645  0.30863778  0.37892986    -0.55600
C1071       C  0.69663935  0.21666371  0.34025249     0.28500
C1072       C  0.68682078  0.27608869  0.33933548     0.28600
C1073       C  0.72492582  0.22786104  0.42052505     0.28500
C1074       C  0.72521894  0.28870368  0.41832994     0.28500
C1075       C  0.69960031  0.17074019  0.36687640     0.37200
C1076       C  0.70727355  0.17492026  0.39806544     0.37200
C1077       C  0.68348073  0.32709280  0.36439559     0.37200
C1078       C  0.70096752  0.33255463  0.39440385     0.37200
C1079       C  0.69776250  0.22621451  0.32079937    -0.20300
C1080       C  0.69129823  0.26363053  0.32022347    -0.20300
C1081       C  0.74440491  0.24284400  0.43624616    -0.20300
C1082       C  0.74481617  0.28113847  0.43480400    -0.20300
C1083       C  0.69447880  0.13492352  0.37385388    -0.21400
C1084       C  0.69910407  0.13759713  0.39359379    -0.21400
C1085       C  0.67626024  0.36302800  0.37065958    -0.21400
C1086       C  0.68758361  0.36657791  0.38959109    -0.21400
C1087       C  0.69875237  0.17993002  0.34702145    -0.16700
C1088       C  0.67878807  0.31294639  0.34514805    -0.16700
C1089       C  0.71730171  0.32504147  0.41232908    -0.16700
C1090       C  0.71787969  0.18912263  0.41659898    -0.16700
H1091       H  0.70198314  0.20795645  0.30827036     0.16200
H1092       H  0.69002029  0.27979634  0.30721425     0.16200
H1093       H  0.75725208  0.22776085  0.44749882     0.13400
H1094       H  0.75777928  0.30113926  0.44488950     0.16200
H1095       H  0.68819267  0.10945259  0.36557612     0.14500
H1096       H  0.69745961  0.11453139  0.40344396     0.14500
H1097       H  0.66483715  0.38471490  0.36233569     0.14500
H1098       H  0.68629095  0.39145576  0.39873895     0.14500
H1099       H  0.68320461  0.24744656  0.36616242     0.27700
H1100       H  0.69434238  0.25309873  0.39854238     0.27700
O1101       O  0.87606687  0.46506398  0.49662044    -0.78600
O1102       O  0.87061303  0.05072327  0.52482885    -0.78600
O1103       O  0.84923333  0.06186991  0.46813331    -0.78600
O1104       O  0.81262331  0.47130183  0.55432867    -0.78500
O1105       O  0.85742775  0.09926073  0.49392960    -0.78700
O1106       O  0.85837615  0.45901934  0.53423203    -0.78600
O1107       O  0.82981360  0.04630104  0.54949590    -0.78600
O1108       O  0.85531624  0.49117636  0.47151806    -0.78600
C1109       C  0.87702105  0.46947212  0.47859032     1.11100
C1110       C  0.86180577  0.05687771  0.54265706     1.11000
C1111       C  0.86192315  0.09285682  0.47559156     1.11100
C1112       C  0.84326673  0.45681729  0.55078946     1.11000
O1113       O  0.78383403  0.42859331  0.52551623    -0.78600
O1114       O  0.78557272  0.07470727  0.49165771    -0.78600
O1115       O  0.79102028  0.49316724  0.47186822    -0.78600
O1116       O  0.75873043  0.05100126  0.53031036    -0.78600
O1117       O  0.80554120  0.09099614  0.52603711    -0.78600
O1118       O  0.80045559  0.43890859  0.48639943    -0.78600
O1119       O  0.74679351  0.47449462  0.53387654    -0.78500
O1120       O  0.78152864  0.02818135  0.47199236    -0.78600
Co1121     Co  0.82853735  0.45147618  0.51068459     1.51500
Co1122     Co  0.82968599  0.05704713  0.50658498     1.51700
Co1123     Co  0.82750321  0.02698785  0.48766728     1.51600
Co1124     Co  0.78782358  0.01098465  0.54013722     1.51500
O1125       O  0.80801431  0.00339727  0.51242243    -1.40500
C1126       C  0.75312127  0.44006220  0.53251593     1.11100
C1127       C  0.77065302  0.05997216  0.47686451     1.11100
C1128       C  0.78612016  0.45730188  0.47313018     1.11100
C1129       C  0.77296240  0.08345415  0.53248967     1.11100
N1130       N  0.89870796  0.26031950  0.61504646    -0.35000
N1131       N  0.90682515  0.31771783  0.64675701    -0.55600
N1132       N  0.92354563  0.26088447  0.67341682    -0.35000
N1133       N  0.91882941  0.20415795  0.64135622    -0.55600
C1134       C  0.89807680  0.29199276  0.60482306     0.28500
C1135       C  0.90355148  0.23154096  0.60214786     0.28600
C1136       C  0.93204831  0.29172320  0.68455193     0.28500
C1137       C  0.93935735  0.23194986  0.68158837     0.28500
C1138       C  0.89406050  0.33881019  0.63261919     0.37200
C1139       C  0.90686846  0.33893752  0.66335135     0.37200
C1140       C  0.91020480  0.18136988  0.62594973     0.37200
C1141       C  0.92390821  0.18193199  0.65651501     0.37200
C1142       C  0.90188672  0.28311859  0.58512502    -0.20300
C1143       C  0.90528357  0.24509993  0.58345467    -0.20300
C1144       C  0.45276250  0.28201052  0.70020635    -0.20300
C1145       C  0.45741798  0.24440241  0.69833227    -0.20300
C1146       C  0.88608032  0.37371114  0.64031392    -0.21400
C1147       C  0.89423508  0.37376993  0.65973639    -0.21400
C1148       C  0.90993143  0.14446417  0.63137042    -0.21400
C1149       C  0.91864118  0.14481572  0.65069935    -0.21400
C1150       C  0.89237934  0.32838401  0.61261052    -0.16700
C1151       C  0.90535068  0.19330836  0.60676234    -0.16700
C1152       C  0.93662773  0.19431519  0.67497453    -0.16700
C1153       C  0.92100550  0.32823882  0.68128232    -0.16700
H1154       H  0.90208278  0.30206951  0.57313871     0.16200
H1155       H  0.90870372  0.22926955  0.56999117     0.16200
H1156       H  0.46362478  0.30013062  0.71176338     0.16200
H1157       H  0.47242700  0.22809337  0.70824531     0.16200
H1158       H  0.87610920  0.39703501  0.63265685     0.14500
H1159       H  0.89181520  0.39700574  0.66993452     0.14500
H1160       H  0.90472205  0.11981633  0.62227511     0.14500
H1161       H  0.92149947  0.12047135  0.65938532     0.14500
H1162       H  0.89247720  0.25826300  0.62979317     0.27700
H1163       H  0.90513065  0.25880150  0.66201460     0.27700
N1164       N  0.62877491  0.25025093  0.65675332    -0.35000
N1165       N  0.64430252  0.30682496  0.62601344    -0.55600
N1166       N  0.68059985  0.25300362  0.60281590    -0.35000
N1167       N  0.66846635  0.19712473  0.63373978    -0.55600
C1168       C  0.61979571  0.28202151  0.66633784     0.28500
C1169       C  0.63219042  0.22358085  0.67022302     0.28600
C1170       C  0.69117623  0.28402985  0.59285815     0.28500
C1171       C  0.70290059  0.22593279  0.59667171     0.28500
C1172       C  0.62230369  0.32610490  0.63827179     0.37200
C1173       C  0.64959784  0.32734637  0.60982436     0.37200
C1174       C  0.65612607  0.17416740  0.64806739     0.37200
C1175       C  0.68110176  0.17514566  0.61908541     0.37200
C1176       C  0.61614348  0.27509944  0.68609539    -0.20300
C1177       C  0.62386338  0.23832847  0.68851743    -0.20300
C1178       C  0.72049846  0.27644548  0.58022223    -0.20300
C1179       C  0.72787207  0.23976470  0.58259642    -0.20300
C1180       C  0.61352463  0.35915868  0.62976372    -0.21400
C1181       C  0.63082332  0.35989037  0.61175029    -0.21400
C1182       C  0.66157972  0.13742321  0.64260538    -0.21400
C1183       C  0.67718252  0.13802036  0.62417880    -0.21400
C1184       C  0.61397222  0.31687424  0.65782742    -0.16700
C1185       C  0.64210134  0.18622241  0.66640374    -0.16700
C1186       C  0.69881148  0.18823693  0.60187410    -0.16700
C1187       C  0.67385746  0.31837496  0.59418730    -0.16700
H1188       H  0.60880173  0.29457922  0.69764118     0.16200
H1189       H  0.62371792  0.22419551  0.70222874     0.16200
H1190       H  0.73482123  0.29521466  0.57015854     0.16200
H1191       H  0.74892492  0.22480530  0.57463474     0.16200
H1192       H  0.59720051  0.38102780  0.63610259     0.14500
H1193       H  0.63047678  0.38222869  0.60150352     0.14500
H1194       H  0.65515232  0.11279897  0.65103509     0.14500
H1195       H  0.68549580  0.11395002  0.61568742     0.14500
H1196       H  0.62967137  0.24661181  0.64174058     0.27700
H1197       H  0.65660600  0.24867306  0.61129908     0.27700
O1198       O  0.52856362  0.47327175  0.29355837    -0.78600
O1199       O  0.59864074  0.52097162  0.21729646    -0.78600
O1200       O  0.00651390  0.46861636  0.24743798    -0.78600
O1201       O  0.61965444  0.44426566  0.26863281    -0.78500
O1202       O  0.53425098  0.49091873  0.22300017    -0.78700
O1203       O  0.60377190  0.46879904  0.29735584    -0.78600
O1204       O  0.61091540  0.46951959  0.23146440    -0.78600
O1205       O  0.98919851  0.50640589  0.27803149    -0.78600
C1206       C  0.49575738  0.47986763  0.28914426     1.11100
C1207       C  0.61352111  0.48973629  0.21675807     1.11000
C1208       C  0.51171804  0.46667845  0.22966710     1.11100
C1209       C  0.61620394  0.44223324  0.28694663     1.11000
O1210       O  0.61042359  0.04926894  0.29303652    -0.78600
O1211       O  0.53213098  0.06433883  0.22171761    -0.78600
O1212       O  0.03313147  0.07194179  0.26554522    -0.78600
O1213       O  0.64313149  0.04213103  0.24365736    -0.78600
O1214       O  0.59396542  0.07647309  0.24678275    -0.78600
O1215       O  0.53611259  0.05273076  0.29524030    -0.78600
O1216       O  0.65360645  0.01530105  0.27974902    -0.78500
O1217       O  0.98427525  0.04212430  0.24017855    -0.78600
Co1218     Co  0.57016433  0.51070782  0.29259633     1.51500
Co1219     Co  0.56104546  0.53335006  0.23829387     1.51700
Co1220     Co  0.52331016  0.51997252  0.25546563     1.51600
Co1221     Co  0.62810079  0.49299067  0.25607192     1.51500
O1222       O  0.57409687  0.50443894  0.26291906    -1.40500
C1223       C  0.64400592  0.04313990  0.28997554     1.11100
C1224       C  0.49706617  0.06220407  0.22595828     1.11100
C1225       C  0.52975244  0.07797428  0.28359611     1.11100
C1226       C  0.62825096  0.07344316  0.24276940     1.11100
O1227       O  0.96870083  0.20110054  0.99311513    -0.78600
O1228       O  0.59924429  0.19408886  0.02836341    -0.78600
O1229       O  0.59955612  0.17654300  0.98617220    -0.78600
O1230       O  0.51541776  0.22911849  0.04854462    -0.78500
O1231       O  0.64964761  0.20555743  0.99942988    -0.78700
O1232       O  0.01336991  0.18936373  0.02365969    -0.78600
O1233       O  0.59172727  0.23501594  0.05200466    -0.78600
O1234       O  0.51900487  0.17467500  0.98128708    -0.78600
C1235       C  0.48335788  0.17608655  0.98247882     1.11100
C1236       C  0.60351839  0.20430766  0.04588694     1.11000
C1237       C  0.63473702  0.17878142  0.98938928     1.11100
C1238       C  0.50535909  0.19758670  0.04114160     1.11000
O1239       O  0.97632692  0.25825862  0.02235838    -0.78600
O1240       O  0.62102484  0.27084325  0.98860968    -0.78600
O1241       O  0.53377857  0.23868851  0.96500307    -0.78600
O1242       O  0.59505053  0.30591976  0.03507895    -0.78600
O1243       O  0.63816888  0.26665815  0.02625116    -0.78600
O1244       O  0.00282851  0.26978129  0.98655270    -0.78600
O1245       O  0.51861348  0.30136769  0.03143381    -0.78500
O1246       O  0.59417008  0.23620444  0.96628906    -0.78600
Co1247     Co  0.50996994  0.22934541  0.00477265     1.51500
Co1248     Co  0.60794838  0.23243353  0.00820003     1.51700
Co1249     Co  0.56002246  0.21537518  0.98651041     1.51600
Co1250     Co  0.55514642  0.26704406  0.04007081     1.51500
O1251       O  0.55879220  0.25056532  0.01162196    -1.40500
C1252       C  0.48513632  0.28995365  0.02996224     1.11100
C1253       C  0.61661937  0.26265777  0.97089078     1.11100
C1254       C  0.51102751  0.26337100  0.96902101     1.11100
C1255       C  0.62883152  0.29763301  0.03389196     1.11100
N1256       N  0.81502298  0.31036953  0.90203601    -0.35000
N1257       N  0.87491751  0.32314885  0.87391903    -0.55600
N1258       N  0.82348067  0.35065080  0.84645696    -0.35000
N1259       N  0.76360677  0.34064535  0.87496034    -0.55600
C1260       C  0.84456034  0.30825175  0.91370591     0.28500
C1261       C  0.78447325  0.31320250  0.91360801     0.28600
C1262       C  0.85648304  0.35997098  0.83760549     0.28500
C1263       C  0.79752145  0.37130498  0.83858295     0.28500
C1264       C  0.89326162  0.30574741  0.88763029     0.37200
C1265       C  0.89709975  0.32352422  0.85784932     0.37200
C1266       C  0.73884578  0.32659215  0.88824603     0.37200
C1267       C  0.74369658  0.35111261  0.85977140     0.37200
C1268       C  0.83247475  0.30902000  0.93300533    -0.20300
C1269       C  0.79444535  0.31181838  0.93294200    -0.20300
C1270       C  0.85135490  0.38639976  0.82370364    -0.20300
C1271       C  0.81416561  0.39356400  0.82432799    -0.20300
C1272       C  0.92718151  0.29470595  0.88021555    -0.21400
C1273       C  0.92955368  0.30584664  0.86128772    -0.21400
C1274       C  0.70298200  0.32840830  0.88151880    -0.21400
C1275       C  0.70606417  0.34416019  0.86353566    -0.21400
C1276       C  0.88163689  0.30359902  0.90725158    -0.16700
C1277       C  0.74780705  0.31552176  0.90705215    -0.16700
C1278       C  0.75897855  0.36897455  0.84313017    -0.16700
C1279       C  0.89068882  0.34404816  0.84119973    -0.16700
H1280       H  0.84920409  0.30721527  0.94577779     0.16200
H1281       H  0.77625646  0.31293151  0.94567264     0.16200
H1282       H  0.87220701  0.39911451  0.81404237     0.16200
H1283       H  0.80086884  0.41280588  0.81521072     0.16200
H1284       H  0.94836470  0.28089629  0.88779382     0.14500
H1285       H  0.95307421  0.30257486  0.85142309     0.14500
H1286       H  0.67720755  0.32008904  0.88897541     0.14500
H1287       H  0.68321702  0.35008956  0.85435660     0.14500
H1288       H  0.81487705  0.30633665  0.88704187     0.27700
H1289       H  0.81841944  0.32859966  0.85579357     0.27700
N1290       N  0.79529886  0.09261875  0.85482795    -0.35000
N1291       N  0.74193453  0.10330853  0.88632542    -0.55600
N1292       N  0.80059665  0.09493655  0.91448300    -0.35000
N1293       N  0.85459957  0.08860585  0.88293192    -0.55600
C1294       C  0.76678380  0.10485769  0.84463202     0.28500
C1295       C  0.82529537  0.09185170  0.84268484     0.28600
C1296       C  0.77207239  0.10447057  0.92638055     0.28500
C1297       C  0.83232544  0.10200386  0.92444490     0.28500
C1298       C  0.71854854  0.10397893  0.87128579     0.37200
C1299       C  0.72049260  0.10045264  0.90262995     0.37200
C1300       C  0.87367267  0.07823348  0.86670730     0.37200
C1301       C  0.87772299  0.08614803  0.89802378     0.37200
C1302       C  0.77880365  0.11149561  0.82566432    -0.20300
C1303       C  0.81563058  0.10306030  0.82440309    -0.20300
C1304       C  0.78566641  0.11640082  0.94432150    -0.20300
C1305       C  0.82356383  0.11503729  0.94306708    -0.20300
C1306       C  0.68197708  0.10198579  0.87810129    -0.21400
C1307       C  0.68321131  0.09960581  0.89796316    -0.21400
C1308       C  0.90923756  0.06914899  0.87155851    -0.21400
C1309       C  0.91190170  0.07459045  0.89136161    -0.21400
C1310       C  0.72974479  0.10800948  0.85160383    -0.16700
C1311       C  0.86078223  0.08016407  0.84746736    -0.16700
C1312       C  0.86896046  0.09631197  0.91752172    -0.16700
C1313       C  0.73404646  0.10248248  0.92171830    -0.16700
H1314       H  0.76261904  0.12099211  0.81387224     0.16200
H1315       H  0.83333063  0.10514176  0.81150158     0.16200
H1316       H  0.77002446  0.12577135  0.95698368     0.16200
H1317       H  0.84245386  0.12283830  0.95464321     0.16200
H1318       H  0.65701947  0.10246035  0.86967852     0.14500
H1319       H  0.65941492  0.09833377  0.90787155     0.14500
H1320       H  0.93138500  0.06063824  0.86178697     0.14500
H1321       H  0.93620293  0.07062245  0.89987464     0.14500
H1322       H  0.79366341  0.08147555  0.86857699     0.27700
H1323       H  0.79795177  0.08155301  0.90102297     0.27700
O1324       O  0.60235021  0.45659724  0.73364596    -0.78600
O1325       O  0.57140893  0.07647876  0.78359741    -0.78600
O1326       O  0.58118121  0.03525406  0.72758939    -0.78600
O1327       O  0.60747286  0.45928137  0.79974422    -0.78500
O1328       O  0.60781021  0.06082158  0.75157027    -0.78700
O1329       O  0.63026726  0.44503595  0.77036861    -0.78600
O1330       O  0.60393376  0.03487020  0.79781812    -0.78600
O1331       O  0.55002348  0.47189100  0.72133220    -0.78600
C1332       C  0.58054938  0.45608727  0.71954693     1.11100
C1333       C  0.59747729  0.06833713  0.79467269     1.11000
C1334       C  0.60656405  0.05721618  0.73366715     1.11100
C1335       C  0.63312809  0.44696172  0.78871480     1.11000
O1336       O  0.55995687  0.41128510  0.78197592    -0.78600
O1337       O  0.53461000  0.08513884  0.74616533    -0.78600
O1338       O  0.49714131  0.47407393  0.75168334    -0.78600
O1339       O  0.52454667  0.02820722  0.79990011    -0.78600
O1340       O  0.50547015  0.03410908  0.77034846    -0.78600
O1341       O  0.53072790  0.42464950  0.74676231    -0.78600
O1342       O  0.52701491  0.45387848  0.79654202    -0.78500
O1343       O  0.50857265  0.03863882  0.72793268    -0.78600
Co1344     Co  0.58080291  0.43817503  0.75845133     1.51500
Co1345     Co  0.55685732  0.04429996  0.76025320     1.51700
Co1346     Co  0.53991817  0.50777147  0.74329655     1.51600
Co1347     Co  0.56597596  0.49385339  0.79634685     1.51500
O1348       O  0.57092943  0.49217711  0.76660432    -1.40500
C1349       C  0.53251424  0.42036039  0.79256070     1.11100
C1350       C  0.51297862  0.07368886  0.73227197     1.11100
C1351       C  0.49959974  0.43996149  0.74675768     1.11100
C1352       C  0.49915689  0.03451205  0.78836864     1.11100
N1353       N  0.80148248  0.15233625  0.10853972    -0.35000
N1354       N  0.86097290  0.14336414  0.13546413    -0.55600
N1355       N  0.80746241  0.14638329  0.16827965    -0.35000
N1356       N  0.74739086  0.15130458  0.14111439    -0.55600
C1357       C  0.82964265  0.14544208  0.09572208     0.28500
C1358       C  0.76937562  0.14960121  0.09862963     0.28600
C1359       C  0.83786885  0.13576915  0.17746168     0.28500
C1360       C  0.77784148  0.14018822  0.18051288     0.28500
C1361       C  0.88189983  0.14767903  0.11903710     0.37200
C1362       C  0.88488227  0.14366026  0.15029460     0.37200
C1363       C  0.72463484  0.15939443  0.12659599     0.37200
C1364       C  0.72765473  0.15517054  0.15800045     0.37200
C1365       C  0.81530218  0.13871036  0.07737213    -0.20300
C1366       C  0.77732987  0.14128884  0.07919951    -0.20300
C1367       C  0.82762687  0.12393741  0.19596237    -0.20300
C1368       C  0.78985935  0.12672453  0.19788192    -0.20300
C1369       C  0.91933822  0.15046562  0.12348166    -0.21400
C1370       C  0.92120999  0.14779182  0.14326010    -0.21400
C1371       C  0.69020627  0.16828438  0.13434548    -0.21400
C1372       C  0.69209182  0.16546437  0.15418471    -0.21400
C1373       C  0.86799099  0.14683599  0.09999088    -0.16700
C1374       C  0.73344392  0.15645950  0.10641468    -0.16700
C1375       C  0.74037452  0.14699890  0.17666706    -0.16700
C1376       C  0.87473159  0.13706929  0.16987438    -0.16700
H1377       H  0.83061562  0.13276828  0.06402189     0.16200
H1378       H  0.75783404  0.13775962  0.06748699     0.16200
H1379       H  0.84545913  0.11410325  0.20697075     0.16200
H1380       H  0.77316699  0.11941753  0.21063719     0.16200
H1381       H  0.94294133  0.15345399  0.11351886     0.14500
H1382       H  0.94646580  0.14832588  0.15149789     0.14500
H1383       H  0.66599718  0.17549220  0.12650927     0.14500
H1384       H  0.66972644  0.17013464  0.16460209     0.14500
H1385       H  0.80429862  0.16234208  0.12261567     0.27700
H1386       H  0.80746748  0.15975632  0.15520233     0.27700
N1387       N  0.81802253  0.37961930  0.10079260    -0.35000
N1388       N  0.76216154  0.40755017  0.12630767    -0.55600
N1389       N  0.81843747  0.42170846  0.15668833    -0.35000
N1390       N  0.87403592  0.39060649  0.13139880    -0.55600
C1391       C  0.78726763  0.36770967  0.09099609     0.28500
C1392       C  0.84644522  0.36050451  0.09332653     0.28600
C1393       C  0.78660293  0.42765356  0.16689900     0.28500
C1394       C  0.84579018  0.41783550  0.16966369     0.28500
C1395       C  0.74176488  0.40353313  0.11003421     0.37200
C1396       C  0.74221013  0.42753894  0.13925340     0.37200
C1397       C  0.89646880  0.38201200  0.11612229     0.37200
C1398       C  0.89644329  0.40197749  0.14612864     0.37200
C1399       C  0.79639144  0.34090955  0.07710038    -0.20300
C1400       C  0.83374775  0.33639883  0.07853311    -0.20300
C1401       C  0.79388936  0.42810363  0.18663497    -0.20300
C1402       C  0.83114596  0.42192557  0.18836771    -0.20300
C1403       C  0.70856783  0.42085838  0.11262456    -0.21400
C1404       C  0.70885635  0.43621873  0.13111105    -0.21400
C1405       C  0.93340230  0.38733676  0.12120821    -0.21400
C1406       C  0.93339283  0.39982917  0.14027448    -0.21400
C1407       C  0.75165287  0.38177385  0.09357507    -0.16700
C1408       C  0.88401236  0.36655638  0.09824585    -0.16700
C1409       C  0.88383959  0.41237838  0.16502655    -0.16700
C1410       C  0.75169089  0.43461440  0.15888697    -0.16700
H1411       H  0.77815671  0.32636968  0.06683433     0.16200
H1412       H  0.84978118  0.31764097  0.06955801     0.16200
H1413       H  0.77440738  0.43260946  0.19857766     0.16200
H1414       H  0.84579686  0.42072161  0.20187384     0.16200
H1415       H  0.68626781  0.42176376  0.10240573     0.14500
H1416       H  0.68655250  0.45123063  0.13793720     0.14500
H1417       H  0.95775650  0.38197663  0.11226092     0.14500
H1418       H  0.95776923  0.40632477  0.14886132     0.14500
H1419       H  0.82079322  0.40259711  0.11020983     0.27700
H1420       H  0.82180830  0.42416359  0.14175319     0.27700
C1421       C  0.70118190  0.11431901  0.83765961    -0.16900
C1422       C  0.67598040  0.11571371  0.82648411     0.07100
C1423       C  0.64558828  0.11003488  0.81395455     0.09000
C1424       C  0.62095684  0.09632431  0.80412746    -0.17800
C1425       C  0.88623331  0.07134139  0.83158621    -0.16900
C1426       C  0.90843895  0.06315799  0.81901798     0.07100
C1427       C  0.93682647  0.05303767  0.80574682     0.09000
C1428       C  0.96379282  0.04436231  0.79634007    -0.17800
C1429       C  0.66469301  0.43207077  0.79781887    -0.16900
C1430       C  0.68807754  0.41818911  0.80726832     0.07100
C1431       C  0.71323885  0.40116198  0.81945531     0.09000
C1432       C  0.73396314  0.38648317  0.83018553    -0.17800
C1433       C  0.00688883  0.39277994  0.80066786    -0.16900
C1434       C  0.98146897  0.37560087  0.80859262     0.07100
C1435       C  0.94957026  0.36130707  0.81873798     0.09000
C1436       C  0.92218409  0.35239000  0.82826529    -0.17800
C1437       C  0.70354147  0.16051840  0.09283000    -0.16900
C1438       C  0.67851868  0.16531795  0.08186464     0.07100
C1439       C  0.64966278  0.17350715  0.06918161     0.09000
C1440       C  0.62665171  0.18428909  0.05839104    -0.17800
C1441       C  0.89521361  0.14781429  0.08404917    -0.16900
C1442       C  0.92104652  0.15171623  0.07264473     0.07100
C1443       C  0.95292802  0.16095309  0.06102028     0.09000
C1444       C  0.97907016  0.17417055  0.05180211    -0.17800
C1445       C  0.65635728  0.32198584  0.04337524    -0.16900
C1446       C  0.67781562  0.34011420  0.05360309     0.07100
C1447       C  0.70220397  0.35838199  0.06715093     0.09000
C1448       C  0.72368989  0.37095045  0.07922192    -0.17800
C1449       C  0.95822975  0.31076886  0.04014956    -0.16900
C1450       C  0.94197208  0.32722316  0.05275681     0.07100
C1451       C  0.92668211  0.34358860  0.06955491     0.09000
C1452       C  0.91062544  0.35514148  0.08371829    -0.17800
C1453       C  0.63927260  0.28072721  0.95632986    -0.16900
C1454       C  0.66213136  0.29157279  0.94452962     0.07100
C1455       C  0.69158311  0.30088484  0.93153636     0.09000
C1456       C  0.71745629  0.30770763  0.92064278    -0.17800
C1457       C  0.99057723  0.27994430  0.95417841    -0.16900
C1458       C  0.96707518  0.28870480  0.94323962     0.07100
C1459       C  0.93627409  0.29462741  0.93159818     0.09000
C1460       C  0.91011504  0.29829987  0.92131799    -0.17800
C1461       C  0.65701132  0.15185548  0.97997355    -0.16900
C1462       C  0.67275022  0.13291928  0.96813241     0.07100
C1463       C  0.69029844  0.11661015  0.95187566     0.09000
C1464       C  0.70795575  0.10771555  0.93764774    -0.17800
C1465       C  0.89902991  0.10437307  0.93113039    -0.16900
C1466       C  0.92041464  0.11557592  0.94359360     0.07100
C1467       C  0.94246340  0.13287104  0.95853503     0.09000
C1468       C  0.96055781  0.15073064  0.97052898    -0.17800
C1469       C  0.91144444  0.41739647  0.18033240    -0.16900
C1470       C  0.93567623  0.42260455  0.19226764     0.07100
C1471       C  0.96455184  0.43144618  0.20577128     0.09000
C1472       C  0.98805689  0.44351146  0.21700719    -0.17800
C1473       C  0.72254913  0.44815985  0.17164480    -0.16900
C1474       C  0.69584001  0.45870581  0.18066455     0.07100
C1475       C  0.66389572  0.47029359  0.19088146     0.09000
C1476       C  0.63836563  0.47963027  0.20118759    -0.17800
C1477       C  0.90374092  0.12739070  0.18269121    -0.16900
C1478       C  0.92653149  0.11571721  0.19312534     0.07100
C1479       C  0.95156018  0.09859663  0.20497208     0.09000
C1480       C  0.97226194  0.08222441  0.21474167    -0.17800
C1481       C  0.64939531  0.10302904  0.23305726    -0.16900
C1482       C  0.66866882  0.12065321  0.22149814     0.07100
C1483       C  0.69211841  0.13466318  0.20613341     0.09000
C1484       C  0.71315489  0.14232170  0.19262714    -0.17800
C1485       C  0.63941945  0.15913773  0.68212819    -0.16900
C1486       C  0.63777514  0.13534614  0.69449729     0.07100
C1487       C  0.63412784  0.10664425  0.70862469     0.09000
C1488       C  0.62637188  0.08260481  0.72044451    -0.17800
C1489       C  0.60235798  0.34707388  0.67042450    -0.16900
C1490       C  0.59616374  0.37444382  0.68012969     0.07100
C1491       C  0.59133309  0.40667813  0.69171618     0.09000
C1492       C  0.58727393  0.43199046  0.70318488    -0.17800
C1493       C  0.49445486  0.09992177  0.72119170    -0.16900
C1494       C  0.47942644  0.12097150  0.71099645     0.07100
C1495       C  0.96282638  0.14527351  0.69849616     0.09000
C1496       C  0.94995457  0.16679610  0.68771429    -0.17800
C1497       C  0.92743399  0.35645054  0.69675713    -0.16900
C1498       C  0.93620110  0.37776508  0.71005929     0.07100
C1499       C  0.45117023  0.40100235  0.72538020     0.09000
C1500       C  0.46937810  0.41973769  0.73699649    -0.17800
C1501       C  0.90316750  0.16467749  0.59109375    -0.16900
C1502       C  0.90032054  0.13921864  0.57907032     0.07100
C1503       C  0.89413397  0.10847226  0.56564615     0.09000
C1504       C  0.88393543  0.08303102  0.55465867    -0.17800
C1505       C  0.88518024  0.35750868  0.59910972    -0.16900
C1506       C  0.87850696  0.38240005  0.58844886     0.07100
C1507       C  0.86909282  0.41117904  0.57608455     0.09000
C1508       C  0.85886529  0.43395755  0.56504687    -0.17800
C1509       C  0.71353602  0.16177492  0.58811743    -0.16900
C1510       C  0.72576980  0.14404291  0.57467733     0.07100
C1511       C  0.74073686  0.12603516  0.55825179     0.09000
C1512       C  0.75479435  0.10894069  0.54510922    -0.17800
C1513       C  0.68346729  0.34603714  0.57939304    -0.16900
C1514       C  0.69431950  0.36752487  0.56689014     0.07100
C1515       C  0.71041043  0.39212072  0.55270893     0.09000
C1516       C  0.72750777  0.41354985  0.54199504    -0.17800
C1517       C  0.69833846  0.14947112  0.33273872    -0.16900
C1518       C  0.69510234  0.12346340  0.32135766     0.07100
C1519       C  0.68568861  0.09290258  0.30880579     0.09000
C1520       C  0.67085255  0.06814442  0.29918560    -0.17800
C1521       C  0.62909626  0.41026747  0.29668360    -0.16900
C1522       C  0.64082884  0.38590820  0.30637575     0.07100
C1523       C  0.65476754  0.35936126  0.31897685     0.09000
C1524       C  0.66618290  0.33790241  0.33050186    -0.17800
C1525       C  0.74821168  0.08198630  0.46471851    -0.16900
C1526       C  0.73717267  0.10622365  0.45457890     0.07100
C1527       C  0.72931003  0.13674537  0.44260234     0.09000
C1528       C  0.72419511  0.16197556  0.43162725    -0.17800
C1529       C  0.76521512  0.43603070  0.45863422    -0.16900
C1530       C  0.75096165  0.41325528  0.44747096     0.07100
C1531       C  0.73732413  0.38337239  0.43526106     0.09000
C1532       C  0.72754078  0.35684228  0.42506068    -0.17800
C1533       C  0.01556597  0.11215545  0.29153333    -0.16900
C1534       C  0.00244166  0.13717678  0.30115148     0.07100
C1535       C  0.98708524  0.16364049  0.31436025     0.09000
C1536       C  0.97491985  0.18533281  0.32639051    -0.17800
C1537       C  0.93806869  0.37230346  0.32640663    -0.16900
C1538       C  0.94035871  0.39814284  0.31555523     0.07100
C1539       C  0.95015585  0.42989749  0.30460407     0.09000
C1540       C  0.96651427  0.45551595  0.29666103    -0.17800
C1541       C  0.92215897  0.18423371  0.42438644    -0.16900
C1542       C  0.91136045  0.16317965  0.43690029     0.07100
C1543       C  0.89575899  0.14007558  0.45154515     0.09000
C1544       C  0.88077691  0.11967192  0.46329140    -0.17800
C1545       C  0.92763221  0.37665689  0.42654091    -0.16900
C1546       C  0.92228976  0.39982216  0.43919118     0.07100
C1547       C  0.91241543  0.42599796  0.45387867     0.09000
C1548       C  0.89942969  0.44705934  0.46585930    -0.17800
N1549       N  0.93564920  0.78048224  0.40578471    -0.35000
N1550       N  0.94607745  0.72229765  0.37566249    -0.55600
N1551       N  0.95104199  0.77847290  0.34655089    -0.35000
N1552       N  0.93701102  0.83598226  0.37639715    -0.55600
C1553       C  0.92425049  0.74975467  0.41567217     0.28500
C1554       C  0.92507276  0.81044878  0.41648211     0.28600
C1555       C  0.95240551  0.74735601  0.33508285     0.28500
C1556       C  0.94160419  0.80660526  0.33522365     0.28500
C1557       C  0.94524229  0.70124273  0.39167877     0.37200
C1558       C  0.95953814  0.70110965  0.36082003     0.37200
C1559       C  0.93917882  0.85914562  0.39217473     0.37200
C1560       C  0.94205803  0.85755825  0.36069127     0.37200
C1561       C  0.90666474  0.76047188  0.43297606    -0.20300
C1562       C  0.90744094  0.79875422  0.43353431    -0.20300
C1563       C  0.94422982  0.75585652  0.31616736    -0.20300
C1564       C  0.93712507  0.79318077  0.31627895    -0.20300
C1565       C  0.95759814  0.66616497  0.38694747    -0.21400
C1566       C  0.96700651  0.66619425  0.36743207    -0.21400
C1567       C  0.94543488  0.89567976  0.38649150    -0.21400
C1568       C  0.94707652  0.89471670  0.36653241    -0.21400
C1569       C  0.93132412  0.71251335  0.41017934    -0.16700
C1570       C  0.93179138  0.84805132  0.41144382    -0.16700
C1571       C  0.94004197  0.84452094  0.34117951    -0.16700
C1572       C  0.96226714  0.71195415  0.34116635    -0.16700
H1573       H  0.89483001  0.74261800  0.44420075     0.16200
H1574       H  0.89603164  0.81598284  0.44510716     0.16200
H1575       H  0.94337689  0.73709769  0.30360539     0.16200
H1576       H  0.93020666  0.80882050  0.30373910     0.16200
H1577       H  0.95950785  0.64296285  0.39654331     0.14500
H1578       H  0.97720351  0.64287256  0.35898766     0.14500
H1579       H  0.94760871  0.92049961  0.39572839     0.14500
H1580       H  0.95121338  0.91870478  0.35738320     0.14500
H1581       H  0.95300213  0.78117232  0.39357800     0.27700
H1582       H  0.96038139  0.78121982  0.36063477     0.27700
N1583       N  0.68976319  0.74721939  0.35139371    -0.35000
N1584       N  0.70759513  0.69507748  0.38168954    -0.55600
N1585       N  0.71297507  0.75601572  0.40984045    -0.35000
N1586       N  0.69867755  0.80863831  0.37892969    -0.55600
C1587       C  0.69663999  0.71666435  0.34025218     0.28500
C1588       C  0.68682186  0.77608945  0.33933523     0.28600
C1589       C  0.72492520  0.72786091  0.42052491     0.28500
C1590       C  0.72521893  0.78870362  0.41832991     0.28500
C1591       C  0.69960002  0.67074065  0.36687607     0.37200
C1592       C  0.70727262  0.67492044  0.39806517     0.37200
C1593       C  0.68348219  0.82709355  0.36439539     0.37200
C1594       C  0.70096855  0.83255505  0.39440374     0.37200
C1595       C  0.69776315  0.72621521  0.32079907    -0.20300
C1596       C  0.69129914  0.76363130  0.32022321    -0.20300
C1597       C  0.74440418  0.74284358  0.43624612    -0.20300
C1598       C  0.74481581  0.78113809  0.43480403    -0.20300
C1599       C  0.69447785  0.63492399  0.37385349    -0.21400
C1600       C  0.69910269  0.63759743  0.39359343    -0.21400
C1601       C  0.67626197  0.86302880  0.37065939    -0.21400
C1602       C  0.68758507  0.86657851  0.38959096    -0.21400
C1603       C  0.69875267  0.67993061  0.34702112    -0.16700
C1604       C  0.67878940  0.81294717  0.34514785    -0.16700
C1605       C  0.71730212  0.82504155  0.41232909    -0.16700
C1606       C  0.71787874  0.68912256  0.41659876    -0.16700
H1607       H  0.70198356  0.70795715  0.30827005     0.16200
H1608       H  0.69002123  0.77979715  0.30721401     0.16200
H1609       H  0.75725102  0.72776022  0.44749880     0.13400
H1610       H  0.75777895  0.80113868  0.44488962     0.16200
H1611       H  0.68819154  0.60945317  0.36557566     0.14500
H1612       H  0.69745770  0.61453164  0.40344358     0.14500
H1613       H  0.66483915  0.88471584  0.36233548     0.14500
H1614       H  0.68629243  0.89145631  0.39873885     0.14500
H1615       H  0.68320560  0.74744727  0.36616205     0.27700
H1616       H  0.69434244  0.75309911  0.39854222     0.27700
O1617       O  0.87606687  0.96506371  0.49662081    -0.78600
O1618       O  0.87061271  0.55072410  0.52482894    -0.78600
O1619       O  0.84923300  0.56187058  0.46813319    -0.78600
O1620       O  0.81262333  0.97130204  0.55432897    -0.78500
O1621       O  0.85742715  0.59926129  0.49392957    -0.78700
O1622       O  0.85837615  0.95901965  0.53423232    -0.78600
O1623       O  0.82981307  0.54630106  0.54949586    -0.78600
O1624       O  0.85531617  0.99117591  0.47151840    -0.78600
C1625       C  0.87702114  0.96947191  0.47859071     1.11100
C1626       C  0.86180520  0.55687821  0.54265716     1.11000
C1627       C  0.86192251  0.59285755  0.47559151     1.11100
C1628       C  0.84326683  0.95681768  0.55078977     1.11000
O1629       O  0.78383388  0.92859355  0.52551662    -0.78600
O1630       O  0.78557235  0.57470739  0.49165756    -0.78600
O1631       O  0.79102025  0.99316694  0.47186852    -0.78600
O1632       O  0.75873005  0.55100092  0.53031014    -0.78600
O1633       O  0.80554056  0.59099617  0.52603701    -0.78600
O1634       O  0.80045549  0.93890836  0.48639982    -0.78600
O1635       O  0.74679350  0.97449503  0.53387690    -0.78500
O1636       O  0.78152852  0.52818156  0.47199215    -0.78600
Co1637     Co  0.82853727  0.95147615  0.51068495     1.51500
Co1638     Co  0.82968572  0.55704746  0.50658490     1.51700
Co1639     Co  0.82750315  0.52698813  0.48766706     1.51600
Co1640     Co  0.78782339  0.51098443  0.54013698     1.51500
O1641       O  0.80801439  0.50339735  0.51242221    -1.40500
C1642       C  0.75312112  0.94006258  0.53251626     1.11100
C1643       C  0.77065273  0.55997229  0.47686434     1.11100
C1644       C  0.78612004  0.95730160  0.47313056     1.11100
C1645       C  0.77296180  0.58345388  0.53248954     1.11100
N1646       N  0.89870719  0.76031975  0.61504697    -0.35000
N1647       N  0.90682462  0.81771901  0.64675718    -0.55600
N1648       N  0.92354556  0.76088647  0.67341733    -0.35000
N1649       N  0.91882929  0.70415909  0.64135702    -0.55600
C1650       C  0.89807595  0.79199276  0.60482335     0.28500
C1651       C  0.90355037  0.73154086  0.60214853     0.28600
C1652       C  0.93204782  0.79172548  0.68455231     0.28500
C1653       C  0.93935748  0.73195220  0.68158907     0.28500
C1654       C  0.89406015  0.83881102  0.63261918     0.37200
C1655       C  0.90686798  0.83893918  0.66335135     0.37200
C1656       C  0.91020490  0.68137050  0.62595069     0.37200
C1657       C  0.92390899  0.68193361  0.65651591     0.37200
C1658       C  0.90188537  0.78311805  0.58512535    -0.20300
C1659       C  0.90528203  0.74509934  0.58345524    -0.20300
C1660       C  0.45276325  0.78201229  0.70020600    -0.20300
C1661       C  0.45741895  0.74440421  0.69833200    -0.20300
C1662       C  0.88608011  0.87371223  0.64031362    -0.21400
C1663       C  0.89423479  0.87377154  0.65973611    -0.21400
C1664       C  0.90993260  0.64446497  0.63137157    -0.21400
C1665       C  0.91864279  0.64481715  0.65070045    -0.21400
C1666       C  0.89237899  0.82838429  0.61261059    -0.16700
C1667       C  0.90534998  0.69330840  0.60676324    -0.16700
C1668       C  0.93662849  0.69431742  0.67497536    -0.16700
C1669       C  0.92100485  0.82824093  0.68128243    -0.16700
H1670       H  0.90208127  0.80206865  0.57313891     0.16200
H1671       H  0.90870190  0.72926862  0.56999183     0.16200
H1672       H  0.46362606  0.80013268  0.71176278     0.16200
H1673       H  0.47242865  0.72809545  0.70824486     0.16200
H1674       H  0.87610913  0.89703593  0.63265636     0.14500
H1675       H  0.89181498  0.89700766  0.66993405     0.14500
H1676       H  0.90472368  0.61981685  0.62227641     0.14500
H1677       H  0.92150189  0.62047305  0.65938652     0.14500
H1678       H  0.89247685  0.75826369  0.62979373     0.27700
H1679       H  0.90513080  0.75880311  0.66201503     0.27700
N1680       N  0.62877424  0.75025096  0.65675323    -0.35000
N1681       N  0.64430262  0.80682530  0.62601360    -0.55600
N1682       N  0.68059919  0.75300364  0.60281573    -0.35000
N1683       N  0.66846523  0.69712456  0.63373946    -0.55600
C1684       C  0.61979487  0.78202138  0.66633784     0.28500
C1685       C  0.63218916  0.72358056  0.67022280     0.28600
C1686       C  0.69117542  0.78402976  0.59285787     0.28500
C1687       C  0.70289925  0.72593248  0.59667120     0.28500
C1688       C  0.62230408  0.82610541  0.63827204     0.37200
C1689       C  0.64959816  0.82734687  0.60982460     0.37200
C1690       C  0.65612477  0.67416722  0.64806703     0.37200
C1691       C  0.68110044  0.67514548  0.61908506     0.37200
C1692       C  0.61614180  0.77509885  0.68609531    -0.20300
C1693       C  0.62386146  0.73832779  0.68851722    -0.20300
C1694       C  0.72049681  0.77644499  0.58022148    -0.20300
C1695       C  0.72787011  0.73976410  0.58259553    -0.20300
C1696       C  0.61352552  0.85915948  0.62976412    -0.21400
C1697       C  0.63082416  0.85989118  0.61175068    -0.21400
C1698       C  0.66157807  0.63742300  0.64260494    -0.21400
C1699       C  0.67718086  0.63802015  0.62417838    -0.21400
C1700       C  0.61397207  0.81687439  0.65782757    -0.16700
C1701       C  0.64210012  0.68622218  0.66640342    -0.16700
C1702       C  0.69881016  0.68823667  0.60187371    -0.16700
C1703       C  0.67385723  0.81837519  0.59418735    -0.16700
H1704       H  0.60879968  0.79457840  0.69764114     0.16200
H1705       H  0.62371536  0.72419450  0.70222845     0.16200
H1706       H  0.73481924  0.79521398  0.57015758     0.16200
H1707       H  0.74892233  0.72480444  0.57463351     0.16200
H1708       H  0.59720164  0.88102872  0.63610305     0.14500
H1709       H  0.63047782  0.88222962  0.60150398     0.14500
H1710       H  0.65515038  0.61279874  0.65103459     0.14500
H1711       H  0.68549384  0.61394977  0.61568693     0.14500
H1712       H  0.62967128  0.74661220  0.64174044     0.27700
H1713       H  0.65660574  0.74867341  0.61129930     0.27700
O1714       O  0.52856359  0.97327127  0.29355809    -0.78600
O1715       O  0.59864068  0.02097202  0.21729634    -0.78600
O1716       O  0.00651339  0.96861689  0.24743789    -0.78600
O1717       O  0.61965466  0.94426558  0.26863245    -0.78500
O1718       O  0.53425088  0.99091888  0.22299999    -0.78700
O1719       O  0.60377189  0.96879863  0.29735553    -0.78600
O1720       O  0.61091555  0.96951986  0.23146411    -0.78600
O1721       O  0.98919839  0.00640656  0.27803143    -0.78600
C1722       C  0.49575735  0.97986725  0.28914403     1.11100
C1723       C  0.61352115  0.98973674  0.21675784     1.11000
C1724       C  0.51171786  0.96667862  0.22966687     1.11100
C1725       C  0.61620413  0.94223301  0.28694627     1.11000
O1726       O  0.61042374  0.54926931  0.29303662    -0.78600
O1727       O  0.53213111  0.56433861  0.22171756    -0.78600
O1728       O  0.03313107  0.57194166  0.26554506    -0.78600
O1729       O  0.64313159  0.54213079  0.24365741    -0.78600
O1730       O  0.59396566  0.57647311  0.24678266    -0.78600
O1731       O  0.53611266  0.55273120  0.29524039    -0.78600
O1732       O  0.65360647  0.51530117  0.27974916    -0.78500
O1733       O  0.98427522  0.54212357  0.24017832    -0.78600
Co1734     Co  0.57016426  0.01070739  0.29259614     1.51500
Co1735     Co  0.56104535  0.03335008  0.23829379     1.51700
Co1736     Co  0.52331014  0.01997241  0.25546551     1.51600
Co1737     Co  0.62810084  0.99299073  0.25607170     1.51500
O1738       O  0.57409684  0.00443871  0.26291887    -1.40500
C1739       C  0.64400604  0.54314016  0.28997561     1.11100
C1740       C  0.49706627  0.56220385  0.22595819     1.11100
C1741       C  0.52975223  0.57797457  0.28359616     1.11100
C1742       C  0.62825120  0.57344297  0.24276930     1.11100
O1743       O  0.96870098  0.70110086  0.99311490    -0.78600
O1744       O  0.59924402  0.69408908  0.02836351    -0.78600
O1745       O  0.59955654  0.67654256  0.98617249    -0.78600
O1746       O  0.51541744  0.72911860  0.04854431    -0.78500
O1747       O  0.64964784  0.70555736  0.99943016    -0.78700
O1748       O  0.01337004  0.68936372  0.02365939    -0.78600
O1749       O  0.59172683  0.73501650  0.05200457    -0.78600
O1750       O  0.51900535  0.67467444  0.98128701    -0.78600
C1751       C  0.48335837  0.67608613  0.98247854     1.11100
C1752       C  0.60351794  0.70430812  0.04588701     1.11000
C1753       C  0.63473743  0.67878119  0.98938961     1.11100
C1754       C  0.50535899  0.69758672  0.04114133     1.11000
O1755       O  0.97632716  0.75825874  0.02235816    -0.78600
O1756       O  0.62102503  0.77084285  0.98860953    -0.78600
O1757       O  0.53377924  0.73868777  0.96500285    -0.78600
O1758       O  0.59505004  0.80592003  0.03507858    -0.78600
O1759       O  0.63816852  0.76665834  0.02625108    -0.78600
O1760       O  0.00282899  0.76978157  0.98655260    -0.78600
O1761       O  0.51861303  0.80136769  0.03143327    -0.78500
O1762       O  0.59417066  0.73620347  0.96628902    -0.78600
Co1763     Co  0.50997008  0.72934526  0.00477231     1.51500
Co1764     Co  0.60794838  0.73243343  0.00820001     1.51700
Co1765     Co  0.56002282  0.71537466  0.98651037     1.51600
Co1766     Co  0.55514602  0.76704431  0.04007050     1.51500
O1767       O  0.55879220  0.75056524  0.01162173    -1.40500
C1768       C  0.48513592  0.78995338  0.02996188     1.11100
C1769       C  0.61661980  0.76265696  0.97089066     1.11100
C1770       C  0.51102815  0.76337034  0.96902060     1.11100
C1771       C  0.62883105  0.79763330  0.03389169     1.11100
N1772       N  0.81502330  0.81036887  0.90203600    -0.35000
N1773       N  0.87491807  0.82314937  0.87391938    -0.55600
N1774       N  0.82348133  0.85065139  0.84645728    -0.35000
N1775       N  0.76360716  0.84064474  0.87496026    -0.55600
C1776       C  0.84456048  0.80825121  0.91370602     0.28500
C1777       C  0.78447333  0.81320125  0.91360785     0.28600
C1778       C  0.85648377  0.85997202  0.83760604     0.28500
C1779       C  0.79752213  0.87130570  0.83858335     0.28500
C1780       C  0.89326211  0.80574779  0.88763060     0.37200
C1781       C  0.89710037  0.82352488  0.85784969     0.37200
C1782       C  0.73884615  0.82659081  0.88824572     0.37200
C1783       C  0.74369709  0.85111201  0.85977128     0.37200
C1784       C  0.83247455  0.80901888  0.93300538    -0.20300
C1785       C  0.79444510  0.81181681  0.93294189    -0.20300
C1786       C  0.85135578  0.88640137  0.82370446    -0.20300
C1787       C  0.81416644  0.89356542  0.82432872    -0.20300
C1788       C  0.92718207  0.79470645  0.88021589    -0.21400
C1789       C  0.92955430  0.80584729  0.86128809    -0.21400
C1790       C  0.70298244  0.82840651  0.88151831    -0.21400
C1791       C  0.70606471  0.84415886  0.86353529    -0.21400
C1792       C  0.88163717  0.80359904  0.90725183    -0.16700
C1793       C  0.74780724  0.81552021  0.90705183    -0.16700
C1794       C  0.75897913  0.86897460  0.84313026    -0.16700
C1795       C  0.89068944  0.84404893  0.84120016    -0.16700
H1796       H  0.84920369  0.80721403  0.94577792     0.16200
H1797       H  0.77625596  0.81292941  0.94567245     0.16200
H1798       H  0.87220801  0.89911656  0.81404340     0.16200
H1799       H  0.80086971  0.91280754  0.81521158     0.16200
H1800       H  0.94836521  0.78089670  0.88779415     0.14500
H1801       H  0.95307488  0.80257562  0.85142347     0.14500
H1802       H  0.67720797  0.82008664  0.88897472     0.14500
H1803       H  0.68321763  0.85008805  0.85435613     0.14500
H1804       H  0.81487765  0.80633631  0.88704182     0.27700
H1805       H  0.81842006  0.82859974  0.85579358     0.27700
N1806       N  0.79529928  0.59261944  0.85482790    -0.35000
N1807       N  0.74193453  0.60330921  0.88632516    -0.55600
N1808       N  0.80059630  0.59493705  0.91448296    -0.35000
N1809       N  0.85459961  0.58860624  0.88293208    -0.55600
C1810       C  0.76678428  0.60485818  0.84463183     0.28500
C1811       C  0.82529595  0.59185243  0.84268488     0.28600
C1812       C  0.77207197  0.60447142  0.92638038     0.28500
C1813       C  0.83232498  0.60200419  0.92444498     0.28500
C1814       C  0.71854869  0.60397932  0.87128545     0.37200
C1815       C  0.72049244  0.60045339  0.90262964     0.37200
C1816       C  0.87367292  0.57823400  0.86670750     0.37200
C1817       C  0.87772277  0.58614810  0.89802402     0.37200
C1818       C  0.77880435  0.61149607  0.82566417    -0.20300
C1819       C  0.81563135  0.60306094  0.82440309    -0.20300
C1820       C  0.78566583  0.61640178  0.94432135    -0.20300
C1821       C  0.82356323  0.61503787  0.94306708    -0.20300
C1822       C  0.68197716  0.60198608  0.87810085    -0.21400
C1823       C  0.68321119  0.59960635  0.89796273    -0.21400
C1824       C  0.90923769  0.56914932  0.87155882    -0.21400
C1825       C  0.91190153  0.57459046  0.89136195    -0.21400
C1826       C  0.72974514  0.60800974  0.85160350    -0.16700
C1827       C  0.86078274  0.58016473  0.84746752    -0.16700
C1828       C  0.86896002  0.59631193  0.91752195    -0.16700
C1829       C  0.73404610  0.60248338  0.92171802    -0.16700
H1830       H  0.76261984  0.62099240  0.81387201     0.16200
H1831       H  0.83333155  0.60514237  0.81150164     0.16200
H1832       H  0.77002381  0.62577256  0.95698344     0.16200
H1833       H  0.84245316  0.62283884  0.95464327     0.16200
H1834       H  0.65701964  0.60246041  0.86967799     0.14500
H1835       H  0.65941471  0.59833429  0.90787106     0.14500
H1836       H  0.93138524  0.56063861  0.86178734     0.14500
H1837       H  0.93620260  0.57062225  0.89987508     0.14500
H1838       H  0.79366368  0.58147630  0.86857691     0.27700
H1839       H  0.79795151  0.58155340  0.90102299     0.27700
O1840       O  0.60234991  0.95659690  0.73364618    -0.78600
O1841       O  0.57140872  0.57647884  0.78359725    -0.78600
O1842       O  0.58118141  0.53525419  0.72758920    -0.78600
O1843       O  0.60747323  0.95928130  0.79974440    -0.78500
O1844       O  0.60781019  0.56082181  0.75157014    -0.78700
O1845       O  0.63026715  0.94503540  0.77036875    -0.78600
O1846       O  0.60393331  0.53487020  0.79781804    -0.78600
O1847       O  0.55002315  0.97189085  0.72133251    -0.78600
C1848       C  0.58054902  0.95608708  0.71954718     1.11100
C1849       C  0.59747699  0.56833714  0.79467257     1.11000
C1850       C  0.60656417  0.55721636  0.73366701     1.11100
C1851       C  0.63312820  0.94696129  0.78871493     1.11000
O1852       O  0.55995674  0.91128499  0.78197621    -0.78600
O1853       O  0.53461007  0.58513902  0.74616509    -0.78600
O1854       O  0.49714118  0.97407393  0.75168377    -0.78600
O1855       O  0.52454627  0.52820714  0.79989978    -0.78600
O1856       O  0.50547003  0.53410913  0.77034808    -0.78600
O1857       O  0.53072753  0.92464939  0.74676262    -0.78600
O1858       O  0.52701525  0.95387859  0.79654246    -0.78500
O1859       O  0.50857289  0.53863907  0.72793232    -0.78600
Co1860     Co  0.58080267  0.93817476  0.75845158     1.51500
Co1861     Co  0.55685727  0.54430012  0.76025297     1.51700
Co1862     Co  0.53991806  0.00777136  0.74329687     1.51600
Co1863     Co  0.56597634  0.99385342  0.79634710     1.51500
O1864       O  0.57092949  0.99217695  0.76660456    -1.40500
C1865       C  0.53251436  0.92036047  0.79256112     1.11100
C1866       C  0.51297885  0.57368912  0.73227165     1.11100
C1867       C  0.49959944  0.93996152  0.74675801     1.11100
C1868       C  0.49915662  0.53451199  0.78836824     1.11100
N1869       N  0.80148231  0.65233698  0.10853926    -0.35000
N1870       N  0.86097320  0.64336425  0.13546342    -0.55600
N1871       N  0.80746330  0.64638340  0.16827922    -0.35000
N1872       N  0.74739129  0.65130524  0.14111422    -0.55600
C1873       C  0.82964220  0.64544268  0.09572153     0.28500
C1874       C  0.76937529  0.64960219  0.09862937     0.28600
C1875       C  0.83786994  0.63576945  0.17746110     0.28500
C1876       C  0.77784259  0.64018852  0.18051258     0.28500
C1877       C  0.88189981  0.64767924  0.11903628     0.37200
C1878       C  0.88488286  0.64366026  0.15029375     0.37200
C1879       C  0.72463499  0.65939514  0.12659596     0.37200
C1880       C  0.72765534  0.65517070  0.15800038     0.37200
C1881       C  0.81530139  0.63871111  0.07737162    -0.20300
C1882       C  0.77732914  0.64128984  0.07919919    -0.20300
C1883       C  0.82762832  0.62393805  0.19596190    -0.20300
C1884       C  0.78986082  0.62672517  0.19788163    -0.20300
C1885       C  0.91933829  0.65046580  0.12348065    -0.21400
C1886       C  0.92121045  0.64779185  0.14325906    -0.21400
C1887       C  0.69020642  0.66828465  0.13434562    -0.21400
C1888       C  0.69209226  0.66546428  0.15418482    -0.21400
C1889       C  0.86799061  0.64683631  0.09999014    -0.16700
C1890       C  0.73344374  0.65646048  0.10641461    -0.16700
C1891       C  0.74037546  0.64699888  0.17666690    -0.16700
C1892       C  0.87473255  0.63706928  0.16987359    -0.16700
H1893       H  0.83061456  0.63276894  0.06402131     0.16200
H1894       H  0.75783308  0.63776075  0.06748676     0.16200
H1895       H  0.84546079  0.61410411  0.20697024     0.16200
H1896       H  0.77316870  0.61941839  0.21063702     0.16200
H1897       H  0.94294122  0.65345428  0.11351773     0.14500
H1898       H  0.94646642  0.64832590  0.15149672     0.14500
H1899       H  0.66599713  0.67549236  0.12650955     0.14500
H1900       H  0.66972695  0.67013414  0.16460230     0.14500
H1901       H  0.80429880  0.66234288  0.12261541     0.27700
H1902       H  0.80746810  0.65975627  0.15520164     0.27700
N1903       N  0.81802226  0.87961839  0.10079241    -0.35000
N1904       N  0.76216111  0.90754928  0.12630751    -0.55600
N1905       N  0.81843720  0.92170865  0.15668791    -0.35000
N1906       N  0.87403577  0.89060646  0.13139842    -0.55600
C1907       C  0.78726739  0.86770862  0.09099591     0.28500
C1908       C  0.84644508  0.86050392  0.09332623     0.28600
C1909       C  0.78660279  0.92765412  0.16689863     0.28500
C1910       C  0.84579012  0.91783639  0.16966323     0.28500
C1911       C  0.74176432  0.90353167  0.11003412     0.37200
C1912       C  0.74220949  0.92753794  0.13925319     0.37200
C1913       C  0.89646865  0.88201177  0.11612193     0.37200
C1914       C  0.89644314  0.90197774  0.14612820     0.37200
C1915       C  0.79639133  0.84090872  0.07710011    -0.20300
C1916       C  0.83374772  0.83639830  0.07853276    -0.20300
C1917       C  0.79388953  0.92810519  0.18663457    -0.20300
C1918       C  0.83114616  0.92192733  0.18836726    -0.20300
C1919       C  0.70856696  0.92085635  0.11262449    -0.21400
C1920       C  0.70885542  0.93621697  0.13111092    -0.21400
C1921       C  0.93340215  0.88733662  0.12120782    -0.21400
C1922       C  0.93339268  0.89982933  0.14027404    -0.21400
C1923       C  0.75165255  0.88177257  0.09357496    -0.16700
C1924       C  0.88401222  0.86655604  0.09824550    -0.16700
C1925       C  0.88383950  0.91237911  0.16502605    -0.16700
C1926       C  0.75169054  0.93461430  0.15888666    -0.16700
H1927       H  0.77815665  0.82636883  0.06683405     0.16200
H1928       H  0.84978125  0.81764067  0.06955757     0.16200
H1929       H  0.77440771  0.93261153  0.19857728     0.16200
H1930       H  0.84579727  0.92072408  0.20187337     0.16200
H1931       H  0.68626678  0.92176122  0.10240573     0.14500
H1932       H  0.68655139  0.95122864  0.13793705     0.14500
H1933       H  0.95775634  0.88197642  0.11226054     0.14500
H1934       H  0.95776908  0.90632514  0.14886085     0.14500
H1935       H  0.82079279  0.90259610  0.11020966     0.27700
H1936       H  0.82180780  0.92416304  0.14175276     0.27700
C1937       C  0.70118232  0.61431893  0.83765917    -0.16900
C1938       C  0.67598072  0.61571349  0.82648372     0.07100
C1939       C  0.64558837  0.61003469  0.81395429     0.09000
C1940       C  0.62095671  0.59632425  0.80412730    -0.17800
C1941       C  0.88623388  0.57134182  0.83158643    -0.16900
C1942       C  0.90843935  0.56315812  0.81901816     0.07100
C1943       C  0.93682653  0.55303749  0.80574685     0.09000
C1944       C  0.96379269  0.54436199  0.79633998    -0.17800
C1945       C  0.66469315  0.93207019  0.79781893    -0.16900
C1946       C  0.68807779  0.91818854  0.80726832     0.07100
C1947       C  0.71323932  0.90116160  0.81945528     0.09000
C1948       C  0.73396373  0.88648302  0.83018553    -0.17800
C1949       C  0.00688888  0.89277996  0.80066791    -0.16900
C1950       C  0.98146914  0.87560084  0.80859271     0.07100
C1951       C  0.94957058  0.86130721  0.81873817     0.09000
C1952       C  0.92218453  0.85239045  0.82826561    -0.17800
C1953       C  0.70354106  0.66051943  0.09283009    -0.16900
C1954       C  0.67851813  0.66531890  0.08186483     0.07100
C1955       C  0.64966215  0.67350793  0.06918184     0.09000
C1956       C  0.62665109  0.68428973  0.05839124    -0.17800
C1957       C  0.89521293  0.64781447  0.08404831    -0.16900
C1958       C  0.92104584  0.65171629  0.07264388     0.07100
C1959       C  0.95292753  0.66095307  0.06101960     0.09000
C1960       C  0.97906992  0.67417051  0.05180163    -0.17800
C1961       C  0.65635670  0.82198617  0.04337494    -0.16900
C1962       C  0.67781516  0.84011422  0.05360282     0.07100
C1963       C  0.70220371  0.85838139  0.06715071     0.09000
C1964       C  0.72368970  0.87094935  0.07922175    -0.17800
C1965       C  0.95823003  0.81076918  0.04014918    -0.16900
C1966       C  0.94197223  0.82722351  0.05275637     0.07100
C1967       C  0.92668209  0.84358878  0.06955448     0.09000
C1968       C  0.91062533  0.85514142  0.08371789    -0.17800
C1969       C  0.63927307  0.78072609  0.95632969    -0.16900
C1970       C  0.66213172  0.79157131  0.94452932     0.07100
C1971       C  0.69158327  0.80088300  0.93153591     0.09000
C1972       C  0.71745638  0.80770574  0.92064230    -0.17800
C1973       C  0.99057786  0.77994491  0.95417837    -0.16900
C1974       C  0.96707571  0.78870547  0.94323969     0.07100
C1975       C  0.93627440  0.79462790  0.93159840     0.09000
C1976       C  0.91011524  0.79830011  0.92131828    -0.17800
C1977       C  0.65701188  0.65185541  0.97997386    -0.16900
C1978       C  0.67275056  0.63291948  0.96813251     0.07100
C1979       C  0.69029826  0.61661075  0.95187549     0.09000
C1980       C  0.70795529  0.60771639  0.93764742    -0.17800
C1981       C  0.89902933  0.60437277  0.93113072    -0.16900
C1982       C  0.92041413  0.61557557  0.94359390     0.07100
C1983       C  0.94246311  0.63287084  0.95853519     0.09000
C1984       C  0.96055772  0.65073065  0.97052898    -0.17800
C1985       C  0.91144437  0.91739756  0.18033187    -0.16900
C1986       C  0.93567598  0.92260576  0.19226720     0.07100
C1987       C  0.96455133  0.93144735  0.20577099     0.09000
C1988       C  0.98805625  0.94351244  0.21700701    -0.17800
C1989       C  0.72254888  0.94816010  0.17164444    -0.16900
C1990       C  0.69583984  0.95870630  0.18066418     0.07100
C1991       C  0.66389563  0.97029423  0.19088111     0.09000
C1992       C  0.63836560  0.97963091  0.20118729    -0.17800
C1993       C  0.90374207  0.62739041  0.18269027    -0.16900
C1994       C  0.92653240  0.61571660  0.19312446     0.07100
C1995       C  0.95156055  0.59859573  0.20497143     0.09000
C1996       C  0.97226191  0.58222340  0.21474123    -0.17800
C1997       C  0.64939573  0.60302859  0.23305701    -0.16900
C1998       C  0.66866951  0.62065252  0.22149789     0.07100
C1999       C  0.69211939  0.63466246  0.20613324     0.09000
C2000       C  0.71315597  0.64232121  0.19262703    -0.17800
C2001       C  0.63941843  0.65913746  0.68212783    -0.16900
C2002       C  0.63777447  0.63534600  0.69449699     0.07100
C2003       C  0.63412764  0.60664431  0.70862449     0.09000
C2004       C  0.62637196  0.58260498  0.72044439    -0.17800
C2005       C  0.60235777  0.84707389  0.67042472    -0.16900
C2006       C  0.59616346  0.87444380  0.68012991     0.07100
C2007       C  0.59133271  0.90667812  0.69171637     0.09000
C2008       C  0.58727350  0.93199041  0.70318508    -0.17800
C2009       C  0.49445525  0.59992216  0.72119138    -0.16900
C2010       C  0.47942699  0.62097229  0.71099628     0.07100
C2011       C  0.96282772  0.64527585  0.69849688     0.09000
C2012       C  0.94995586  0.66679874  0.68771520    -0.17800
C2013       C  0.92743301  0.85645292  0.69675712    -0.16900
C2014       C  0.93620001  0.87776734  0.71005933     0.07100
C2015       C  0.45116972  0.90100309  0.72538028     0.09000
C2016       C  0.46937772  0.91973803  0.73699670    -0.17800
C2017       C  0.90316657  0.66467714  0.59109479    -0.16900
C2018       C  0.90031948  0.63921840  0.57907126     0.07100
C2019       C  0.89413291  0.60847239  0.56564680     0.09000
C2020       C  0.88393455  0.58303147  0.55465904    -0.17800
C2021       C  0.88518040  0.85750878  0.59910962    -0.16900
C2022       C  0.87850743  0.88240034  0.58844884     0.07100
C2023       C  0.86909335  0.91117960  0.57608473     0.09000
C2024       C  0.85886562  0.93395818  0.56504717    -0.17800
C2025       C  0.71353480  0.66177451  0.58811716    -0.16900
C2026       C  0.72576876  0.64404235  0.57467717     0.07100
C2027       C  0.74073599  0.62603455  0.55825170     0.09000
C2028       C  0.75479358  0.60894017  0.54510914    -0.17800
C2029       C  0.68346701  0.84603740  0.57939313    -0.16900
C2030       C  0.69431913  0.86752522  0.56689026     0.07100
C2031       C  0.71041002  0.89212115  0.55270910     0.09000
C2032       C  0.72750745  0.91355031  0.54199528    -0.17800
C2033       C  0.69833892  0.64947176  0.33273836    -0.16900
C2034       C  0.69510286  0.62346397  0.32135734     0.07100
C2035       C  0.68568902  0.59290299  0.30880560     0.09000
C2036       C  0.67085280  0.56814474  0.29918554    -0.17800
C2037       C  0.62909670  0.91026734  0.29668320    -0.16900
C2038       C  0.64082953  0.88590831  0.30637541     0.07100
C2039       C  0.65476853  0.85936177  0.31897662     0.09000
C2040       C  0.66618411  0.83790318  0.33050169    -0.17800
C2041       C  0.74821125  0.58198636  0.46471834    -0.16900
C2042       C  0.73717199  0.60622355  0.45457869     0.07100
C2043       C  0.72930904  0.63674512  0.44260206     0.09000
C2044       C  0.72419400  0.66197529  0.43162697    -0.17800
C2045       C  0.76521486  0.93603038  0.45863467    -0.16900
C2046       C  0.75096137  0.91325497  0.44747141     0.07100
C2047       C  0.73732402  0.88337214  0.43526142     0.09000
C2048       C  0.72754091  0.85684215  0.42506089    -0.17800
C2049       C  0.01556535  0.61215547  0.29153313    -0.16900
C2050       C  0.00244110  0.63717676  0.30115136     0.07100
C2051       C  0.98708492  0.66364053  0.31436021     0.09000
C2052       C  0.97491966  0.68533304  0.32639042    -0.17800
C2053       C  0.93806742  0.87230416  0.32640581    -0.16900
C2054       C  0.94035733  0.89814347  0.31555440     0.07100
C2055       C  0.95015454  0.92989815  0.30460336     0.09000
C2056       C  0.96651334  0.95551655  0.29666052    -0.17800
C2057       C  0.92215666  0.68423506  0.42438627    -0.16900
C2058       C  0.91135848  0.66318106  0.43690021     0.07100
C2059       C  0.89575751  0.64007687  0.45154513     0.09000
C2060       C  0.88077585  0.61967297  0.46329139    -0.17800
C2061       C  0.92763055  0.87665817  0.42654045    -0.16900
C2062       C  0.92228907  0.89982316  0.43919097     0.07100
C2063       C  0.91241559  0.92599848  0.45387884     0.09000
C2064       C  0.89943007  0.94705948  0.46585970    -0.17800
loop_ 
_geom_bond_atom_site_label_1 
_geom_bond_atom_site_label_2 
_geom_bond_distance 
_geom_bond_site_symmetry_2 
_ccdc_geom_bond_type 
N1            C6   1.355       .  A
N1            C5   1.352       .  A
N1           H33   1.035       .  S
N2            C9   1.351       .  A
N2           C10   1.354       .  A
N3            C8   1.354       .  A
N3            C7   1.354       .  A
N3           H34   1.034       .  S
N4           C11   1.352       .  A
N4           C12   1.349       .  A
C5           C13   1.390       .  A
C5           C21   1.415       .  A
C6           C22   1.411       .  A
C6           C14   1.385       .  A
C7           C15   1.386       .  A
C7           C24   1.414       .  A
C8           C23   1.416       .  A
C8           C16   1.388       .  A
C9           C21   1.414       .  A
C9           C17   1.387       .  A
C10          C24   1.416       .  A
C10          C18   1.387       .  A
C11          C19   1.385       .  A
C11          C22   1.409       .  A
C12          C20   1.389       .  A
C12          C23   1.413       .  A
C13          C14   1.374       .  A
C13          H25   1.082       .  S
C14          H26   1.082       .  S
C15          C16   1.378       .  A
C15          H27   1.082       .  S
C16          H28   1.082       .  S
C17          C18   1.377       .  A
C17          H29   1.082       .  S
C18          H30   1.082       .  S
C19          C20   1.372       .  A
C19          H31   1.082       .  S
C20          H32   1.082       .  S
C21         C509   1.448       .  S
C22         C513   1.453       .  S
C23         C505   1.448       .  S
C24         C504   1.459       .  S
N35          C40   1.355       .  A
N35          C39   1.353       .  A
N35          H67   1.037       .  S
N36          C43   1.352       .  A
N36          C44   1.354       .  A
N37          C42   1.356       .  A
N37          C41   1.359       .  A
N37          H68   1.039       .  S
N38          C45   1.355       .  A
N38          C46   1.352       .  A
C39          C47   1.389       .  A
C39          C55   1.417       .  A
C40          C56   1.416       .  A
C40          C48   1.386       .  A
C41          C49   1.385       .  A
C41          C58   1.422       .  A
C42          C57   1.424       .  A
C42          C50   1.389       .  A
C43          C55   1.415       .  A
C43          C51   1.387       .  A
C44          C58   1.415       .  A
C44          C52   1.387       .  A
C45          C53   1.386       .  A
C45          C56   1.417       .  A
C46          C54   1.388       .  A
C46          C57   1.417       .  A
C47          C48   1.378       .  A
C47          H59   1.082       .  S
C48          H60   1.082       .  S
C49          C50   1.381       .  A
C49          H61   1.082       .  S
C50          H62   1.082       .  S
C51          C52   1.372       .  A
C51          H63   1.082       .  S
C52          H64   1.082       .  S
C53          C54   1.375       .  A
C53          H65   1.082       .  S
C54          H66   1.082       .  S
C55         C485   1.452       .  S
C56         C492   1.461       .  S
C57         C500   1.459       .  S
C58         C496   1.469       .  S
O69          C77   1.254       .  A
O69         Co89   1.992       .  S
O70          C78   1.276       .  A
O70         Co90   1.985       .  S
O71          C79   1.281       .  A
O71         Co91   1.981       .  S
O72          C80   1.261       .  A
O72        Co608   2.007       .  S
O73          C79   1.284       .  A
O73         Co90   1.982       .  S
O74          C80   1.253       .  A
O74         Co89   1.971       .  S
O75          C78   1.278       .  A
O75         Co92   2.030       .  S
O76          C77   1.248       .  A
O76        Co607   1.975       .  S
C77         C516   1.437       .  S
C78         C472   1.454       .  S
C79         C512   1.433       .  S
C80         C476   1.438       .  S
O81          C94   1.280       .  A
O81         Co89   2.035       .  S
O82          C95   1.255       .  A
O82         Co90   2.049       .  S
O83          C96   1.297       .  A
O83        Co607   2.055       .  S
O84          C97   1.256       .  A
O84         Co92   1.965       .  S
O85          C97   1.264       .  A
O85         Co90   2.002       .  S
O86          C96   1.275       .  A
O86         Co89   2.003       .  S
O87          C94   1.270       .  A
O87        Co608   1.973       .  S
O88          C95   1.261       .  A
O88         Co91   2.001       .  S
Co89        O609   2.042       .  S
Co90         O93   2.087       .  S
Co91        O592   1.975   1_545  S
Co91        O599   2.055   1_545  S
Co91         O93   2.017       .  S
Co92        O588   2.007   1_545  S
Co92        O603   1.973   1_545  S
Co92         O93   2.041       .  S
O93        Co605   2.042   1_545  S
C94         C484   1.448       .  S
C95         C493   1.452       .  S
C96         C497   1.443       .  S
C97         C480   1.420       .  S
N98         C103   1.361       .  A
N98         C102   1.354       .  A
N98         H130   1.037       .  S
N99         C106   1.351       .  A
N99         C107   1.356       .  A
N100        C105   1.352       .  A
N100        C104   1.357       .  A
N100        H131   1.038       .  S
N101        C108   1.355       .  A
N101        C109   1.351       .  A
C102        C110   1.389       .  A
C102        C118   1.423       .  A
C103        C119   1.423       .  A
C103        C111   1.386       .  A
C104        C121   1.415       .  A
C104       C1144   1.387       .  A
C105        C120   1.415       .  A
C105       C1145   1.389       .  A
C106        C118   1.419       .  A
C106        C114   1.390       .  A
C107        C121   1.415       .  A
C107        C115   1.384       .  A
C108        C116   1.386       .  A
C108        C119   1.416       .  A
C109        C117   1.388       .  A
C109        C120   1.414       .  A
C110        C111   1.379       .  A
C110        H122   1.082       .  S
C111        H123   1.082       .  S
C112        C113   1.373       .  A
C112       C1136   1.387       .  A
C112        H124   1.082       .  S
C113       C1137   1.389       .  A
C113        H125   1.082       .  S
C114        C115   1.375       .  A
C114        H126   1.082       .  S
C115        H127   1.082       .  S
C116        C117   1.373       .  A
C116        H128   1.082       .  S
C117        H129   1.082       .  S
C118        C473   1.454       .  S
C119        C469   1.472       .  S
C120        C464   1.445       .  S
C121        C465   1.465       .  S
N132        C137   1.362       .  A
N132        C136   1.354       .  A
N132        H164   1.038       .  S
N133        C140   1.347       .  A
N133        C141   1.356       .  A
N134        C139   1.347       .  A
N134        C138   1.357       .  A
N134        H165   1.039       .  S
N135        C142   1.354       .  A
N135        C143   1.350       .  A
C136        C144   1.390       .  A
C136        C152   1.423       .  A
C137        C153   1.423       .  A
C137        C145   1.385       .  A
C138        C146   1.386       .  A
C138        C155   1.411       .  A
C139        C154   1.409       .  A
C139        C147   1.390       .  A
C140        C152   1.415       .  A
C140        C148   1.391       .  A
C141        C155   1.411       .  A
C141        C149   1.383       .  A
C142        C150   1.386       .  A
C142        C153   1.414       .  A
C143        C151   1.387       .  A
C143        C154   1.411       .  A
C144        C145   1.379       .  A
C144        H156   1.082       .  S
C145        H157   1.082       .  S
C146        C147   1.372       .  A
C146        H158   1.082       .  S
C147        H159   1.082       .  S
C148        C149   1.374       .  A
C148        H160   1.082       .  S
C149        H161   1.082       .  S
C150        C151   1.375       .  A
C150        H162   1.082       .  S
C151        H163   1.082       .  S
C152        C457   1.444       .  S
C153        C453   1.472       .  S
C154        C477   1.436       .  S
C155        C481   1.464       .  S
O166        C174   1.263   1_455  A
O166       Co186   1.963       .  S
O167        C175   1.268       .  A
O167       Co187   2.014       .  S
O168       C1208   1.233       .  A
O168      Co1220   1.981       .  S
O169        C177   1.267       .  A
O169       Co189   1.978       .  S
O170        C176   1.248       .  A
O170       Co187   2.044       .  S
O171        C177   1.272       .  A
O171       Co186   2.018       .  S
O172        C175   1.259       .  A
O172       Co189   1.971       .  S
O173       C1206   1.272       .  A
O173      Co1220   2.011       .  S
C174       C1540   1.430       .  S
C174       O1205   1.272       .  A
C175        C444   1.431       .  S
C176       C1472   1.450   1_455  S
C176       O1200   1.233       .  A
C177        C489   1.447       .  S
O178        C191   1.253       .  A
O178       Co702   1.954       .  S
O179        C192   1.289   1_455  A
O179       Co703   1.966       .  S
O180       C1225   1.259       .  A
O180      Co1736   1.993       .  S
O181        C194   1.274       .  A
O181       Co705   2.024   1_545  S
O182        C194   1.269       .  A
O182       Co703   1.987       .  S
O183        C193   1.259       .  A
O183       Co702   1.996       .  S
O184        C191   1.266       .  A
O184       Co705   2.017   1_545  S
O185       C1224   1.292       .  A
O185      Co1736   1.986       .  S
Co186       O694   1.954       .  S
Co186       O699   1.996       .  S
Co186       O190   2.051       .  S
Co187       O695   1.966       .  S
Co187       O698   1.987       .  S
Co187       O190   2.085       .  S
Co188      O1200   1.981       .  S
Co188      O1205   2.011   1_455  S
Co188      O1728   1.993       .  S
Co188      O1733   1.986   1_455  S
Co188       O190   2.022       .  S
Co189       O697   2.024       .  S
Co189       O700   2.017       .  S
Co189       O190   2.051       .  S
C191        C488   1.434       .  S
C192       C1480   1.428       .  S
C192       O1217   1.292       .  A
C193       C1533   1.444       .  S
C193       O1212   1.259       .  A
C194        C449   1.444       .  S
O195       C1235   1.273       .  A
O195      Co1247   1.935   1_556  S
O196        C204   1.262       .  A
O196       Co216   1.988       .  S
O197        C205   1.290       .  A
O197       Co217   2.044       .  S
O198        C206   1.269       .  A
O198       Co218   2.012       .  S
O199        C205   1.274       .  A
O199       Co216   1.905   1_556  S
O200       C1238   1.261       .  A
O200      Co1247   1.972       .  S
O201        C204   1.261       .  A
O201       Co218   1.998       .  S
O202        C203   1.289   1_455  A
O202       Co217   2.056       .  S
C203       C1468   1.448       .  S
C203       O1227   1.273       .  A
C204        C408   1.442       .  S
C205        C429   1.422       .  S
C206       C1444   1.435   1_455  S
C206       O1232   1.261       .  A
O207       C1252   1.269       .  A
O207      Co1247   2.002       .  S
O208        C221   1.258       .  A
O208       Co216   1.985   1_556  S
O209        C222   1.260       .  A
O209       Co217   1.999       .  S
O210        C223   1.268       .  A
O210       Co218   1.983       .  S
O211        C223   1.276       .  A
O211       Co216   2.022       .  S
O212       C1254   1.253       .  A
O212      Co1247   1.974   1_556  S
O213        C220   1.260   1_455  A
O213       Co218   1.962       .  S
O214        C221   1.255       .  A
O214       Co217   1.971       .  S
Co215      O1227   1.935   1_454  S
Co215      O1232   1.972       .  S
Co215      O1239   2.002   1_455  S
Co215      O1244   1.974   1_554  S
Co215       O219   1.945       .  S
Co216       O219   1.926       .  S
Co217       O219   2.116   1_556  S
Co218       O219   2.033       .  S
C220       C1449   1.416       .  S
C220       O1239   1.269       .  A
C221        C421   1.425       .  S
C222       C1457   1.433   1_455  S
C222       O1244   1.253       .  A
C223        C413   1.445       .  S
N224        C229   1.350       .  A
N224        C228   1.355       .  A
N224        H256   1.038       .  S
N225        C232   1.349       .  A
N225        C233   1.349       .  A
N226        C231   1.355       .  A
N226        C230   1.354       .  A
N226        H257   1.039       .  S
N227        C234   1.351       .  A
N227        C235   1.353       .  A
C228        C236   1.387       .  A
C228        C244   1.415       .  A
C229        C245   1.413       .  A
C229        C237   1.389       .  A
C230        C238   1.387       .  A
C230        C247   1.415       .  A
C231        C246   1.415       .  A
C231        C239   1.387       .  A
C232        C244   1.407       .  A
C232        C240   1.386       .  A
C233        C247   1.408       .  A
C233        C241   1.387       .  A
C234        C242   1.388       .  A
C234        C245   1.413       .  A
C235        C243   1.386       .  A
C235        C246   1.413       .  A
C236        C237   1.379       .  A
C236        H248   1.082       .  S
C237        H249   1.082       .  S
C238        C239   1.377       .  A
C238        H250   1.082       .  S
C239        H251   1.082       .  S
C240        C241   1.371       .  A
C240        H252   1.082       .  S
C241        H253   1.082       .  S
C242        C243   1.373       .  A
C242        H254   1.082       .  S
C243        H255   1.082       .  S
C244        C428   1.450       .  S
C245        C424   1.443       .  S
C246        C400   1.458       .  S
C247        C404   1.449       .  S
N258        C263   1.351       .  A
N258        C262   1.356       .  A
N258        H290   1.036       .  S
N259        C266   1.351       .  A
N259        C267   1.350       .  A
N260        C265   1.356       .  A
N260        C264   1.351       .  A
N260        H291   1.037       .  S
N261        C268   1.351       .  A
N261        C269   1.354       .  A
C262        C270   1.388       .  A
C262        C278   1.416       .  A
C263        C279   1.415       .  A
C263        C271   1.388       .  A
C264        C272   1.388       .  A
C264        C281   1.412       .  A
C265        C280   1.416       .  A
C265        C273   1.388       .  A
C266        C278   1.412       .  A
C266        C274   1.387       .  A
C267        C281   1.411       .  A
C267        C275   1.387       .  A
C268        C276   1.389       .  A
C268        C279   1.418       .  A
C269        C277   1.384       .  A
C269        C280   1.414       .  A
C270        C271   1.377       .  A
C270        H282   1.082       .  S
C271        H283   1.082       .  S
C272        C273   1.370       .  A
C272        H284   1.082       .  S
C273        H285   1.082       .  S
C274        C275   1.373       .  A
C274        H286   1.082       .  S
C275        H287   1.082       .  S
C276        C277   1.376       .  A
C276        H288   1.082       .  S
C277        H289   1.082       .  S
C278        C389   1.454       .  S
C279        C393   1.449       .  S
C280        C433   1.462       .  S
C281        C432   1.442       .  S
O292        C300   1.262       .  A
O292       Co312   1.973       .  S
O293        C301   1.274       .  A
O293       Co313   2.018       .  S
O294        C302   1.249       .  A
O294       Co830   2.045       .  S
O295        C303   1.272       .  A
O295       Co315   2.014       .  S
O296        C302   1.237       .  A
O296       Co313   1.983       .  S
O297        C303   1.269       .  A
O297       Co312   1.981       .  S
O298        C301   1.262       .  A
O298       Co831   1.961   1_545  S
O299        C300   1.266       .  A
O299       Co314   2.000       .  S
C300        C460   1.426       .  S
C301        C392   1.434       .  S
C302        C456   1.454       .  S
C303        C397   1.444       .  S
O304        C317   1.265       .  A
O304       Co312   2.016       .  S
O305        C318   1.293       .  A
O305       Co313   1.991       .  S
O306        C319   1.270       .  A
O306       Co314   1.994   1_655  S
O307        C320   1.258   1_455  A
O307       Co831   1.992   1_545  S
O308        C320   1.255   1_455  A
O308       Co313   1.982       .  S
O309        C319   1.274   1_455  A
O309       Co312   2.024       .  S
O310        C317   1.253       .  A
O310       Co315   1.956       .  S
O311        C318   1.290       .  A
O311       Co830   1.967       .  S
Co312       O316   2.052       .  S
Co313       O832   2.026   1_545  S
Co314       O810   2.045       .  S
Co314       O827   1.967       .  S
Co314       O316   2.081       .  S
Co315       O814   1.961       .  S
Co315       O823   1.992       .  S
Co315       O316   2.049       .  S
O316       Co829   2.026       .  S
C317       C1433   1.434       .  S
C318        C461   1.428   1_455  S
C319        C468   1.447       .  S
C320       C1428   1.433       .  S
N321        C326   1.355       .  A
N321        C325   1.357       .  A
N321        H353   1.030       .  S
N322        C329   1.351       .  A
N322        C330   1.350       .  A
N323        C328   1.356       .  A
N323        C327   1.354       .  A
N323        H354   1.031       .  S
N324        C331   1.354       .  A
N324        C332   1.355       .  A
C325        C333   1.386       .  A
C325        C341   1.418       .  A
C326        C342   1.420       .  A
C326        C334   1.389       .  A
C327        C335   1.388       .  A
C327        C344   1.415       .  A
C328        C343   1.417       .  A
C328        C336   1.387       .  A
C329        C341   1.413       .  A
C329        C337   1.388       .  A
C330        C344   1.410       .  A
C330        C338   1.387       .  A
C331        C339   1.388       .  A
C331        C342   1.419       .  A
C332        C340   1.385       .  A
C332        C343   1.416       .  A
C333        C334   1.379       .  A
C333        H345   1.082       .  S
C334        H346   1.082       .  S
C335        C336   1.373       .  A
C335        H347   1.082       .  S
C336        H348   1.082       .  S
C337        C338   1.370       .  A
C337        H349   1.082       .  S
C338        H350   1.083       .  S
C339        C340   1.375       .  A
C339        H351   1.082       .  S
C340        H352   1.082       .  S
C341        C409   1.454       .  S
C342        C405   1.458       .  S
C343        C452   1.462       .  S
C344        C445   1.445       .  S
N355        C360   1.347       .  A
N355        C359   1.356       .  A
N355        H387   1.039       .  S
N356        C363   1.354       .  A
N356        C364   1.348       .  A
N357        C362   1.360       .  A
N357        C361   1.354       .  A
N357        H388   1.037       .  S
N358        C365   1.350       .  A
N358        C366   1.353       .  A
C359        C367   1.386       .  A
C359        C375   1.409       .  A
C360        C376   1.408       .  A
C360        C368   1.390       .  A
C361        C369   1.388       .  A
C361        C378   1.422       .  A
C362        C377   1.423       .  A
C362        C370   1.386       .  A
C363        C375   1.409       .  A
C363        C371   1.382       .  A
C364        C378   1.415       .  A
C364        C372   1.391       .  A
C365        C373   1.387       .  A
C365        C376   1.410       .  A
C366        C374   1.387       .  A
C366        C377   1.414       .  A
C367        C368   1.370       .  A
C367        H379   1.082       .  S
C368        H380   1.082       .  S
C369        C370   1.380       .  A
C369        H381   1.082       .  S
C370        H382   1.082       .  S
C371        C372   1.373       .  A
C371        H383   1.082       .  S
C372        H384   1.082       .  S
C373        C374   1.375       .  A
C373        H385   1.082       .  S
C374        H386   1.082       .  S
C375        C416   1.459       .  S
C376        C420   1.435       .  S
C377        C437   1.467       .  S
C378        C441   1.448       .  S
C389        C390   1.207       .  T
C390        C391   1.413       .  S
C391        C392   1.206       .  T
C393        C394   1.205       .  T
C394        C395   1.410       .  S
C395        C396   1.205       .  T
C396       C1352   1.433       .  S
C397        C398   1.211       .  T
C398        C399   1.421       .  S
C399        C400   1.211       .  T
C401       C1349   1.434       .  S
C401        C402   1.205       .  T
C402        C403   1.411       .  S
C403        C404   1.206       .  T
C405        C406   1.211       .  T
C406        C407   1.420       .  S
C407        C408   1.211       .  T
C409        C410   1.208       .  T
C410        C411   1.414       .  S
C411        C412   1.207       .  T
C412       C1238   1.435       .  S
C413        C414   1.212       .  T
C414        C415   1.421       .  S
C415        C416   1.212       .  T
C417       C1252   1.416       .  S
C417        C418   1.196       .  T
C418        C419   1.398       .  S
C419        C420   1.197       .  T
C421        C422   1.200       .  T
C422        C423   1.404       .  S
C423        C424   1.201       .  T
C425       C1254   1.433       .  S
C425        C426   1.205       .  T
C426        C427   1.412       .  S
C427        C428   1.206       .  T
C429        C430   1.199       .  T
C430        C431   1.402       .  S
C431        C432   1.200       .  T
C433        C434   1.214       .  T
C434        C435   1.425       .  S
C435        C436   1.214       .  T
C436       C1235   1.448       .  S
C437        C438   1.217       .  T
C438        C439   1.429       .  S
C439        C440   1.216       .  T
C440       C1208   1.450       .  S
C441        C442   1.205       .  T
C442        C443   1.410       .  S
C443        C444   1.204       .  T
C445        C446   1.202       .  T
C446        C447   1.405       .  S
C447        C448   1.201       .  T
C448       C1224   1.428       .  S
C449        C450   1.212       .  T
C450        C451   1.423       .  S
C451        C452   1.213       .  T
C453        C454   1.220       .  T
C454        C455   1.434       .  S
C455        C456   1.219       .  T
C457        C458   1.202       .  T
C458        C459   1.405       .  S
C459        C460   1.201       .  T
C461        C462   1.202       .  T
C462       C1495   1.406       .  S
C463        C464   1.202       .  T
C463       C1494   1.406       .  S
C465        C466   1.215       .  T
C466       C1499   1.426       .  S
C467        C468   1.214       .  T
C467       C1498   1.426       .  S
C469        C470   1.220       .  T
C470        C471   1.434       .  S
C471        C472   1.219       .  T
C473        C474   1.208       .  T
C474        C475   1.415       .  S
C475        C476   1.208       .  T
C477        C478   1.198       .  T
C478        C479   1.399       .  S
C479        C480   1.197       .  T
C481        C482   1.215       .  T
C482        C483   1.426       .  S
C483        C484   1.214       .  T
C485        C486   1.207       .  T
C486        C487   1.412       .  S
C487        C488   1.205       .  T
C489        C490   1.213       .  T
C490        C491   1.423       .  S
C491        C492   1.213       .  T
C493        C494   1.218       .  T
C494        C495   1.432       .  S
C495        C496   1.218       .  T
C497        C498   1.211       .  T
C498        C499   1.421       .  S
C499        C500   1.212       .  T
C501       C1225   1.444       .  S
C501        C502   1.212       .  T
C502        C503   1.422       .  S
C503        C504   1.212       .  T
C505        C506   1.204       .  T
C506        C507   1.408       .  S
C507        C508   1.203       .  T
C508       C1206   1.430       .  S
C509        C510   1.205       .  T
C510        C511   1.410       .  S
C511        C512   1.204       .  T
C513        C514   1.208       .  T
C514        C515   1.415       .  S
C515        C516   1.207       .  T
N517        C522   1.355       .  A
N517        C521   1.352       .  A
N517        H549   1.035       .  S
N518        C525   1.351       .  A
N518        C526   1.354       .  A
N519        C524   1.354       .  A
N519        C523   1.354       .  A
N519        H550   1.034       .  S
N520        C527   1.352       .  A
N520        C528   1.349       .  A
C521        C529   1.390       .  A
C521        C537   1.415       .  A
C522        C538   1.411       .  A
C522        C530   1.385       .  A
C523        C531   1.386       .  A
C523        C540   1.414       .  A
C524        C539   1.416       .  A
C524        C532   1.388       .  A
C525        C537   1.414       .  A
C525        C533   1.387       .  A
C526        C540   1.416       .  A
C526        C534   1.387       .  A
C527        C535   1.385       .  A
C527        C538   1.409       .  A
C528        C536   1.389       .  A
C528        C539   1.413       .  A
C529        C530   1.374       .  A
C529        H541   1.082       .  S
C530        H542   1.082       .  S
C531        C532   1.378       .  A
C531        H543   1.082       .  S
C532        H544   1.082       .  S
C533        C534   1.377       .  A
C533        H545   1.082       .  S
C534        H546   1.082       .  S
C535        C536   1.372       .  A
C535        H547   1.082       .  S
C536        H548   1.082       .  S
C537       C1025   1.448       .  S
C538       C1029   1.453       .  S
C539       C1021   1.448       .  S
C540       C1020   1.459       .  S
N551        C556   1.355       .  A
N551        C555   1.353       .  A
N551        H583   1.037       .  S
N552        C559   1.352       .  A
N552        C560   1.354       .  A
N553        C558   1.356       .  A
N553        C557   1.359       .  A
N553        H584   1.039       .  S
N554        C561   1.355       .  A
N554        C562   1.352       .  A
C555        C563   1.389       .  A
C555        C571   1.417       .  A
C556        C572   1.416       .  A
C556        C564   1.386       .  A
C557        C565   1.385       .  A
C557        C574   1.422       .  A
C558        C573   1.424       .  A
C558        C566   1.389       .  A
C559        C571   1.415       .  A
C559        C567   1.387       .  A
C560        C574   1.415       .  A
C560        C568   1.387       .  A
C561        C569   1.386       .  A
C561        C572   1.417       .  A
C562        C570   1.388       .  A
C562        C573   1.417       .  A
C563        C564   1.378       .  A
C563        H575   1.082       .  S
C564        H576   1.082       .  S
C565        C566   1.381       .  A
C565        H577   1.082       .  S
C566        H578   1.082       .  S
C567        C568   1.372       .  A
C567        H579   1.082       .  S
C568        H580   1.082       .  S
C569        C570   1.375       .  A
C569        H581   1.082       .  S
C570        H582   1.082       .  S
C571       C1001   1.452       .  S
C572       C1008   1.461       .  S
C573       C1016   1.459       .  S
C574       C1012   1.469       .  S
O585        C593   1.254       .  A
O585       Co605   1.992       .  S
O586        C594   1.276       .  A
O586       Co606   1.985       .  S
O587        C595   1.281       .  A
O587       Co607   1.981       .  S
O588        C596   1.261       .  A
O589        C595   1.284       .  A
O589       Co606   1.982       .  S
O590        C596   1.253       .  A
O590       Co605   1.971       .  S
O591        C594   1.278       .  A
O591       Co608   2.030       .  S
O592        C593   1.248       .  A
C593       C1032   1.437       .  S
C594        C988   1.454       .  S
C595       C1028   1.433       .  S
C596        C992   1.438       .  S
O597        C610   1.280       .  A
O597       Co605   2.035       .  S
O598        C611   1.255       .  A
O598       Co606   2.049       .  S
O599        C612   1.297       .  A
O600        C613   1.256       .  A
O600       Co608   1.965       .  S
O601        C613   1.264       .  A
O601       Co606   2.002       .  S
O602        C612   1.275       .  A
O602       Co605   2.003       .  S
O603        C610   1.270       .  A
O604        C611   1.261       .  A
O604       Co607   2.001       .  S
Co606       O609   2.087       .  S
Co607       O609   2.017       .  S
Co608       O609   2.041       .  S
C610       C1000   1.448       .  S
C611       C1009   1.452       .  S
C612       C1013   1.443       .  S
C613        C996   1.420       .  S
N614        C619   1.361       .  A
N614        C618   1.354       .  A
N614        H646   1.037       .  S
N615        C622   1.351       .  A
N615        C623   1.356       .  A
N616        C621   1.352       .  A
N616        C620   1.357       .  A
N616        H647   1.038       .  S
N617        C624   1.355       .  A
N617        C625   1.351       .  A
C618        C626   1.389       .  A
C618        C634   1.423       .  A
C619        C635   1.423       .  A
C619        C627   1.386       .  A
C620       C1660   1.387       .  A
C620        C637   1.415       .  A
C621        C636   1.415       .  A
C621       C1661   1.389       .  A
C622        C634   1.419       .  A
C622        C630   1.390       .  A
C623        C637   1.415       .  A
C623        C631   1.384       .  A
C624        C632   1.386       .  A
C624        C635   1.416       .  A
C625        C633   1.388       .  A
C625        C636   1.414       .  A
C626        C627   1.379       .  A
C626        H638   1.082       .  S
C627        H639   1.082       .  S
C628       C1652   1.387       .  A
C628        C629   1.373       .  A
C628        H640   1.082       .  S
C629       C1653   1.389       .  A
C629        H641   1.082       .  S
C630        C631   1.375       .  A
C630        H642   1.082       .  S
C631        H643   1.082       .  S
C632        C633   1.373       .  A
C632        H644   1.082       .  S
C633        H645   1.082       .  S
C634        C989   1.454       .  S
C635        C985   1.472       .  S
C636        C980   1.445       .  S
C637        C981   1.465       .  S
N648        C653   1.362       .  A
N648        C652   1.354       .  A
N648        H680   1.038       .  S
N649        C656   1.347       .  A
N649        C657   1.356       .  A
N650        C655   1.347       .  A
N650        C654   1.357       .  A
N650        H681   1.039       .  S
N651        C658   1.354       .  A
N651        C659   1.350       .  A
C652        C660   1.390       .  A
C652        C668   1.423       .  A
C653        C669   1.423       .  A
C653        C661   1.385       .  A
C654        C662   1.386       .  A
C654        C671   1.411       .  A
C655        C670   1.409       .  A
C655        C663   1.390       .  A
C656        C668   1.415       .  A
C656        C664   1.391       .  A
C657        C671   1.411       .  A
C657        C665   1.383       .  A
C658        C666   1.386       .  A
C658        C669   1.414       .  A
C659        C667   1.387       .  A
C659        C670   1.411       .  A
C660        C661   1.379       .  A
C660        H672   1.082       .  S
C661        H673   1.082       .  S
C662        C663   1.372       .  A
C662        H674   1.082       .  S
C663        H675   1.082       .  S
C664        C665   1.374       .  A
C664        H676   1.082       .  S
C665        H677   1.082       .  S
C666        C667   1.375       .  A
C666        H678   1.082       .  S
C667        H679   1.082       .  S
C668        C973   1.444       .  S
C669        C969   1.472       .  S
C670        C993   1.436       .  S
C671        C997   1.464       .  S
O682        C690   1.263   1_455  A
O682       Co702   1.963   1_565  S
O683        C691   1.268   1_545  A
O683       Co703   2.014       .  S
O684       C1724   1.233       .  A
O684      Co1736   1.981   1_565  S
O685        C693   1.267       .  A
O685       Co705   1.978       .  S
O686        C692   1.248       .  A
O686       Co703   2.044   1_565  S
O687        C693   1.272       .  A
O687       Co702   2.018   1_565  S
O688        C691   1.259       .  A
O688       Co705   1.971       .  S
O689       C1722   1.272   1_545  A
O689      Co1736   2.011       .  S
C690       C2056   1.430       .  S
C690       O1721   1.272   1_565  A
C691        C960   1.431       .  S
C692       C1988   1.450   1_455  S
C692       O1716   1.233       .  A
C693       C1005   1.447       .  S
O694        C707   1.253       .  A
O695        C708   1.289   1_455  A
O696       C1741   1.259       .  A
O696      Co1220   1.993       .  S
O697        C710   1.274       .  A
O698        C710   1.269       .  A
O699        C709   1.259       .  A
O700        C707   1.266       .  A
O701       C1740   1.292       .  A
O701      Co1220   1.986       .  S
Co702       O706   2.051       .  S
Co703       O706   2.085       .  S
Co704      O1716   1.981   1_545  S
Co704      O1721   2.011   1_455  S
Co704      O1212   1.993       .  S
Co704      O1217   1.986   1_455  S
Co704       O706   2.022       .  S
Co705       O706   2.051   1_565  S
C707       C1004   1.434       .  S
C708       C1996   1.428       .  S
C708       O1733   1.292       .  A
C709       C2049   1.444       .  S
C709       O1728   1.259       .  A
C710        C965   1.444       .  S
O711       C1751   1.273       .  A
O711      Co1763   1.935   1_556  S
O712        C720   1.262       .  A
O712       Co732   1.988       .  S
O713        C721   1.290       .  A
O713       Co733   2.044       .  S
O714        C722   1.269       .  A
O714       Co734   2.012       .  S
O715        C721   1.274       .  A
O715       Co732   1.905   1_556  S
O716       C1754   1.261       .  A
O716      Co1763   1.972       .  S
O717        C720   1.261       .  A
O717       Co734   1.998       .  S
O718        C719   1.289   1_455  A
O718       Co733   2.056       .  S
C719       C1984   1.448       .  S
C719       O1743   1.273       .  A
C720        C924   1.442       .  S
C721        C945   1.422       .  S
C722       C1960   1.435   1_455  S
C722       O1748   1.261       .  A
O723       C1768   1.269       .  A
O723      Co1763   2.002       .  S
O724        C737   1.258       .  A
O724       Co732   1.985   1_556  S
O725        C738   1.260       .  A
O725       Co733   1.999       .  S
O726        C739   1.268       .  A
O726       Co734   1.983       .  S
O727        C739   1.276       .  A
O727       Co732   2.022       .  S
O728       C1770   1.253       .  A
O728      Co1763   1.974   1_556  S
O729        C736   1.260   1_455  A
O729       Co734   1.962       .  S
O730        C737   1.255       .  A
O730       Co733   1.971       .  S
Co731      O1743   1.935   1_454  S
Co731      O1748   1.972       .  S
Co731      O1755   2.002   1_455  S
Co731      O1760   1.974   1_554  S
Co731       O735   1.945       .  S
Co732       O735   1.926       .  S
Co733       O735   2.116   1_556  S
Co734       O735   2.033       .  S
C736       C1965   1.416       .  S
C736       O1755   1.269       .  A
C737        C937   1.425       .  S
C738       C1973   1.433   1_455  S
C738       O1760   1.253       .  A
C739        C929   1.445       .  S
N740        C745   1.350       .  A
N740        C744   1.355       .  A
N740        H772   1.038       .  S
N741        C748   1.349       .  A
N741        C749   1.349       .  A
N742        C747   1.355       .  A
N742        C746   1.354       .  A
N742        H773   1.039       .  S
N743        C750   1.351       .  A
N743        C751   1.353       .  A
C744        C752   1.387       .  A
C744        C760   1.415       .  A
C745        C761   1.413       .  A
C745        C753   1.389       .  A
C746        C754   1.387       .  A
C746        C763   1.415       .  A
C747        C762   1.415       .  A
C747        C755   1.387       .  A
C748        C760   1.407       .  A
C748        C756   1.386       .  A
C749        C763   1.408       .  A
C749        C757   1.387       .  A
C750        C758   1.388       .  A
C750        C761   1.413       .  A
C751        C759   1.386       .  A
C751        C762   1.413       .  A
C752        C753   1.379       .  A
C752        H764   1.082       .  S
C753        H765   1.082       .  S
C754        C755   1.377       .  A
C754        H766   1.082       .  S
C755        H767   1.082       .  S
C756        C757   1.371       .  A
C756        H768   1.082       .  S
C757        H769   1.082       .  S
C758        C759   1.373       .  A
C758        H770   1.082       .  S
C759        H771   1.082       .  S
C760        C944   1.450       .  S
C761        C940   1.443       .  S
C762        C916   1.458       .  S
C763        C920   1.449       .  S
N774        C779   1.351       .  A
N774        C778   1.356       .  A
N774        H806   1.036       .  S
N775        C782   1.351       .  A
N775        C783   1.350       .  A
N776        C781   1.356       .  A
N776        C780   1.351       .  A
N776        H807   1.037       .  S
N777        C784   1.351       .  A
N777        C785   1.354       .  A
C778        C786   1.388       .  A
C778        C794   1.416       .  A
C779        C795   1.415       .  A
C779        C787   1.388       .  A
C780        C788   1.388       .  A
C780        C797   1.412       .  A
C781        C796   1.416       .  A
C781        C789   1.388       .  A
C782        C794   1.412       .  A
C782        C790   1.387       .  A
C783        C797   1.411       .  A
C783        C791   1.387       .  A
C784        C792   1.389       .  A
C784        C795   1.418       .  A
C785        C793   1.384       .  A
C785        C796   1.414       .  A
C786        C787   1.377       .  A
C786        H798   1.082       .  S
C787        H799   1.082       .  S
C788        C789   1.370       .  A
C788        H800   1.082       .  S
C789        H801   1.082       .  S
C790        C791   1.373       .  A
C790        H802   1.082       .  S
C791        H803   1.082       .  S
C792        C793   1.376       .  A
C792        H804   1.082       .  S
C793        H805   1.082       .  S
C794        C905   1.454       .  S
C795        C909   1.449       .  S
C796        C949   1.462       .  S
C797        C948   1.442       .  S
O808        C816   1.262       .  A
O808       Co828   1.973       .  S
O809        C817   1.274       .  A
O809       Co829   2.018       .  S
O810        C818   1.249       .  A
O811        C819   1.272       .  A
O811       Co831   2.014       .  S
O812        C818   1.237       .  A
O812       Co829   1.983       .  S
O813        C819   1.269       .  A
O813       Co828   1.981       .  S
O814        C817   1.262       .  A
O815        C816   1.266       .  A
O815       Co830   2.000   1_565  S
C816        C976   1.426       .  S
C817        C908   1.434       .  S
C818        C972   1.454       .  S
C819        C913   1.444       .  S
O820        C833   1.265       .  A
O820       Co828   2.016       .  S
O821        C834   1.293       .  A
O821       Co829   1.991       .  S
O822        C835   1.270       .  A
O822       Co830   1.994   1_665  S
O823        C836   1.258   1_455  A
O824        C836   1.255   1_455  A
O824       Co829   1.982       .  S
O825        C835   1.274   1_455  A
O825       Co828   2.024       .  S
O826        C833   1.253       .  A
O826       Co831   1.956       .  S
O827        C834   1.290       .  A
Co828       O832   2.052       .  S
Co830       O832   2.081   1_545  S
Co831       O832   2.049       .  S
C833       C1949   1.434       .  S
C834        C977   1.428   1_455  S
C835        C984   1.447       .  S
C836       C1944   1.433       .  S
N837        C842   1.355       .  A
N837        C841   1.357       .  A
N837        H869   1.030       .  S
N838        C845   1.351       .  A
N838        C846   1.350       .  A
N839        C844   1.356       .  A
N839        C843   1.354       .  A
N839        H870   1.031       .  S
N840        C847   1.354       .  A
N840        C848   1.355       .  A
C841        C849   1.386       .  A
C841        C857   1.418       .  A
C842        C858   1.420       .  A
C842        C850   1.389       .  A
C843        C851   1.388       .  A
C843        C860   1.415       .  A
C844        C859   1.417       .  A
C844        C852   1.387       .  A
C845        C857   1.413       .  A
C845        C853   1.388       .  A
C846        C860   1.410       .  A
C846        C854   1.387       .  A
C847        C855   1.388       .  A
C847        C858   1.419       .  A
C848        C856   1.385       .  A
C848        C859   1.416       .  A
C849        C850   1.379       .  A
C849        H861   1.082       .  S
C850        H862   1.082       .  S
C851        C852   1.373       .  A
C851        H863   1.082       .  S
C852        H864   1.082       .  S
C853        C854   1.370       .  A
C853        H865   1.082       .  S
C854        H866   1.083       .  S
C855        C856   1.375       .  A
C855        H867   1.082       .  S
C856        H868   1.082       .  S
C857        C925   1.454       .  S
C858        C921   1.458       .  S
C859        C968   1.462       .  S
C860        C961   1.445       .  S
N871        C876   1.347       .  A
N871        C875   1.356       .  A
N871        H903   1.039       .  S
N872        C879   1.354       .  A
N872        C880   1.348       .  A
N873        C878   1.360       .  A
N873        C877   1.354       .  A
N873        H904   1.037       .  S
N874        C881   1.350       .  A
N874        C882   1.353       .  A
C875        C883   1.386       .  A
C875        C891   1.409       .  A
C876        C892   1.408       .  A
C876        C884   1.390       .  A
C877        C885   1.388       .  A
C877        C894   1.422       .  A
C878        C893   1.423       .  A
C878        C886   1.386       .  A
C879        C891   1.409       .  A
C879        C887   1.382       .  A
C880        C894   1.415       .  A
C880        C888   1.391       .  A
C881        C889   1.387       .  A
C881        C892   1.410       .  A
C882        C890   1.387       .  A
C882        C893   1.414       .  A
C883        C884   1.370       .  A
C883        H895   1.082       .  S
C884        H896   1.082       .  S
C885        C886   1.380       .  A
C885        H897   1.082       .  S
C886        H898   1.082       .  S
C887        C888   1.373       .  A
C887        H899   1.082       .  S
C888        H900   1.082       .  S
C889        C890   1.375       .  A
C889        H901   1.082       .  S
C890        H902   1.082       .  S
C891        C932   1.459       .  S
C892        C936   1.435       .  S
C893        C953   1.467       .  S
C894        C957   1.448       .  S
C905        C906   1.207       .  T
C906        C907   1.413       .  S
C907        C908   1.206       .  T
C909        C910   1.205       .  T
C910        C911   1.410       .  S
C911        C912   1.205       .  T
C912       C1868   1.433       .  S
C913        C914   1.211       .  T
C914        C915   1.421       .  S
C915        C916   1.211       .  T
C917       C1865   1.434       .  S
C917        C918   1.205       .  T
C918        C919   1.411       .  S
C919        C920   1.206       .  T
C921        C922   1.211       .  T
C922        C923   1.420       .  S
C923        C924   1.211       .  T
C925        C926   1.208       .  T
C926        C927   1.414       .  S
C927        C928   1.207       .  T
C928       C1754   1.435       .  S
C929        C930   1.212       .  T
C930        C931   1.421       .  S
C931        C932   1.212       .  T
C933       C1768   1.416       .  S
C933        C934   1.196       .  T
C934        C935   1.398       .  S
C935        C936   1.197       .  T
C937        C938   1.200       .  T
C938        C939   1.404       .  S
C939        C940   1.201       .  T
C941       C1770   1.433       .  S
C941        C942   1.205       .  T
C942        C943   1.412       .  S
C943        C944   1.206       .  T
C945        C946   1.199       .  T
C946        C947   1.402       .  S
C947        C948   1.200       .  T
C949        C950   1.214       .  T
C950        C951   1.425       .  S
C951        C952   1.214       .  T
C952       C1751   1.448       .  S
C953        C954   1.217       .  T
C954        C955   1.429       .  S
C955        C956   1.216       .  T
C956       C1724   1.450       .  S
C957        C958   1.205       .  T
C958        C959   1.410       .  S
C959        C960   1.204       .  T
C961        C962   1.202       .  T
C962        C963   1.405       .  S
C963        C964   1.201       .  T
C964       C1740   1.428       .  S
C965        C966   1.212       .  T
C966        C967   1.423       .  S
C967        C968   1.213       .  T
C969        C970   1.220       .  T
C970        C971   1.434       .  S
C971        C972   1.219       .  T
C973        C974   1.202       .  T
C974        C975   1.405       .  S
C975        C976   1.201       .  T
C977        C978   1.202       .  T
C978       C2011   1.406       .  S
C979        C980   1.202       .  T
C979       C2010   1.406       .  S
C981        C982   1.215       .  T
C982       C2015   1.426       .  S
C983        C984   1.214       .  T
C983       C2014   1.426       .  S
C985        C986   1.220       .  T
C986        C987   1.434       .  S
C987        C988   1.219       .  T
C989        C990   1.208       .  T
C990        C991   1.415       .  S
C991        C992   1.208       .  T
C993        C994   1.198       .  T
C994        C995   1.399       .  S
C995        C996   1.197       .  T
C997        C998   1.215       .  T
C998        C999   1.426       .  S
C999       C1000   1.214       .  T
C1001      C1002   1.207       .  T
C1002      C1003   1.412       .  S
C1003      C1004   1.205       .  T
C1005      C1006   1.213       .  T
C1006      C1007   1.423       .  S
C1007      C1008   1.213       .  T
C1009      C1010   1.218       .  T
C1010      C1011   1.432       .  S
C1011      C1012   1.218       .  T
C1013      C1014   1.211       .  T
C1014      C1015   1.421       .  S
C1015      C1016   1.212       .  T
C1017      C1741   1.444       .  S
C1017      C1018   1.212       .  T
C1018      C1019   1.422       .  S
C1019      C1020   1.212       .  T
C1021      C1022   1.204       .  T
C1022      C1023   1.408       .  S
C1023      C1024   1.203       .  T
C1024      C1722   1.430       .  S
C1025      C1026   1.205       .  T
C1026      C1027   1.410       .  S
C1027      C1028   1.204       .  T
C1029      C1030   1.208       .  T
C1030      C1031   1.415       .  S
C1031      C1032   1.207       .  T
N1033      C1038   1.355       .  A
N1033      C1037   1.352       .  A
N1033      H1065   1.035       .  S
N1034      C1041   1.351       .  A
N1034      C1042   1.354       .  A
N1035      C1040   1.354       .  A
N1035      C1039   1.354       .  A
N1035      H1066   1.034       .  S
N1036      C1043   1.352       .  A
N1036      C1044   1.349       .  A
C1037      C1045   1.390       .  A
C1037      C1053   1.415       .  A
C1038      C1054   1.411       .  A
C1038      C1046   1.385       .  A
C1039      C1047   1.386       .  A
C1039      C1056   1.414       .  A
C1040      C1055   1.416       .  A
C1040      C1048   1.388       .  A
C1041      C1053   1.414       .  A
C1041      C1049   1.387       .  A
C1042      C1056   1.416       .  A
C1042      C1050   1.387       .  A
C1043      C1051   1.385       .  A
C1043      C1054   1.409       .  A
C1044      C1052   1.389       .  A
C1044      C1055   1.413       .  A
C1045      C1046   1.374       .  A
C1045      H1057   1.082       .  S
C1046      H1058   1.082       .  S
C1047      C1048   1.378       .  A
C1047      H1059   1.082       .  S
C1048      H1060   1.082       .  S
C1049      C1050   1.377       .  A
C1049      H1061   1.082       .  S
C1050      H1062   1.082       .  S
C1051      C1052   1.372       .  A
C1051      H1063   1.082       .  S
C1052      H1064   1.082       .  S
C1053      C1541   1.448       .  S
C1054      C1545   1.453       .  S
C1055      C1537   1.448       .  S
C1056      C1536   1.459       .  S
N1067      C1072   1.355       .  A
N1067      C1071   1.353       .  A
N1067      H1099   1.037       .  S
N1068      C1075   1.352       .  A
N1068      C1076   1.354       .  A
N1069      C1074   1.356       .  A
N1069      C1073   1.359       .  A
N1069      H1100   1.039       .  S
N1070      C1077   1.355       .  A
N1070      C1078   1.352       .  A
C1071      C1079   1.389       .  A
C1071      C1087   1.417       .  A
C1072      C1088   1.416       .  A
C1072      C1080   1.386       .  A
C1073      C1081   1.385       .  A
C1073      C1090   1.422       .  A
C1074      C1089   1.424       .  A
C1074      C1082   1.389       .  A
C1075      C1087   1.415       .  A
C1075      C1083   1.387       .  A
C1076      C1090   1.415       .  A
C1076      C1084   1.387       .  A
C1077      C1085   1.386       .  A
C1077      C1088   1.417       .  A
C1078      C1086   1.388       .  A
C1078      C1089   1.417       .  A
C1079      C1080   1.378       .  A
C1079      H1091   1.082       .  S
C1080      H1092   1.082       .  S
C1081      C1082   1.381       .  A
C1081      H1093   1.082       .  S
C1082      H1094   1.082       .  S
C1083      C1084   1.372       .  A
C1083      H1095   1.082       .  S
C1084      H1096   1.082       .  S
C1085      C1086   1.375       .  A
C1085      H1097   1.082       .  S
C1086      H1098   1.082       .  S
C1087      C1517   1.452       .  S
C1088      C1524   1.461       .  S
C1089      C1532   1.459       .  S
C1090      C1528   1.469       .  S
O1101      C1109   1.254       .  A
O1101     Co1121   1.992       .  S
O1102      C1110   1.276       .  A
O1102     Co1122   1.985       .  S
O1103      C1111   1.281       .  A
O1103     Co1123   1.981       .  S
O1104      C1112   1.261       .  A
O1104     Co1640   2.007       .  S
O1105      C1111   1.284       .  A
O1105     Co1122   1.982       .  S
O1106      C1112   1.253       .  A
O1106     Co1121   1.971       .  S
O1107      C1110   1.278       .  A
O1107     Co1124   2.030       .  S
O1108      C1109   1.248       .  A
O1108     Co1639   1.975       .  S
C1109      C1548   1.437       .  S
C1110      C1504   1.454       .  S
C1111      C1544   1.433       .  S
C1112      C1508   1.438       .  S
O1113      C1126   1.280       .  A
O1113     Co1121   2.035       .  S
O1114      C1127   1.255       .  A
O1114     Co1122   2.049       .  S
O1115      C1128   1.297       .  A
O1115     Co1639   2.055       .  S
O1116      C1129   1.256       .  A
O1116     Co1124   1.965       .  S
O1117      C1129   1.264       .  A
O1117     Co1122   2.002       .  S
O1118      C1128   1.275       .  A
O1118     Co1121   2.003       .  S
O1119      C1126   1.270       .  A
O1119     Co1640   1.973       .  S
O1120      C1127   1.261       .  A
O1120     Co1123   2.001       .  S
Co1121     O1641   2.042       .  S
Co1122     O1125   2.087       .  S
Co1123     O1624   1.975   1_545  S
Co1123     O1631   2.055   1_545  S
Co1123     O1125   2.017       .  S
Co1124     O1620   2.007   1_545  S
Co1124     O1635   1.973   1_545  S
Co1124     O1125   2.041       .  S
O1125     Co1637   2.042   1_545  S
C1126      C1516   1.448       .  S
C1127      C1525   1.452       .  S
C1128      C1529   1.443       .  S
C1129      C1512   1.420       .  S
N1130      C1135   1.361       .  A
N1130      C1134   1.354       .  A
N1130      H1162   1.037       .  S
N1131      C1138   1.351       .  A
N1131      C1139   1.356       .  A
N1132      C1137   1.352       .  A
N1132      C1136   1.357       .  A
N1132      H1163   1.038       .  S
N1133      C1140   1.355       .  A
N1133      C1141   1.351       .  A
C1134      C1142   1.389       .  A
C1134      C1150   1.423       .  A
C1135      C1151   1.423       .  A
C1135      C1143   1.386       .  A
C1136      C1153   1.415       .  A
C1137      C1152   1.415       .  A
C1138      C1150   1.419       .  A
C1138      C1146   1.390       .  A
C1139      C1153   1.415       .  A
C1139      C1147   1.384       .  A
C1140      C1148   1.386       .  A
C1140      C1151   1.416       .  A
C1141      C1149   1.388       .  A
C1141      C1152   1.414       .  A
C1142      C1143   1.379       .  A
C1142      H1154   1.082       .  S
C1143      H1155   1.082       .  S
C1144      C1145   1.373       .  A
C1144      H1156   1.082       .  S
C1145      H1157   1.082       .  S
C1146      C1147   1.375       .  A
C1146      H1158   1.082       .  S
C1147      H1159   1.082       .  S
C1148      C1149   1.373       .  A
C1148      H1160   1.082       .  S
C1149      H1161   1.082       .  S
C1150      C1505   1.454       .  S
C1151      C1501   1.472       .  S
C1152      C1496   1.445       .  S
C1153      C1497   1.465       .  S
N1164      C1169   1.362       .  A
N1164      C1168   1.354       .  A
N1164      H1196   1.038       .  S
N1165      C1172   1.347       .  A
N1165      C1173   1.356       .  A
N1166      C1171   1.347       .  A
N1166      C1170   1.357       .  A
N1166      H1197   1.039       .  S
N1167      C1174   1.354       .  A
N1167      C1175   1.350       .  A
C1168      C1176   1.390       .  A
C1168      C1184   1.423       .  A
C1169      C1185   1.423       .  A
C1169      C1177   1.385       .  A
C1170      C1178   1.386       .  A
C1170      C1187   1.411       .  A
C1171      C1186   1.409       .  A
C1171      C1179   1.390       .  A
C1172      C1184   1.415       .  A
C1172      C1180   1.391       .  A
C1173      C1187   1.411       .  A
C1173      C1181   1.383       .  A
C1174      C1182   1.386       .  A
C1174      C1185   1.414       .  A
C1175      C1183   1.387       .  A
C1175      C1186   1.411       .  A
C1176      C1177   1.379       .  A
C1176      H1188   1.082       .  S
C1177      H1189   1.082       .  S
C1178      C1179   1.372       .  A
C1178      H1190   1.082       .  S
C1179      H1191   1.082       .  S
C1180      C1181   1.374       .  A
C1180      H1192   1.082       .  S
C1181      H1193   1.082       .  S
C1182      C1183   1.375       .  A
C1182      H1194   1.082       .  S
C1183      H1195   1.082       .  S
C1184      C1489   1.444       .  S
C1185      C1485   1.472       .  S
C1186      C1509   1.436       .  S
C1187      C1513   1.464       .  S
O1198      C1206   1.263       .  A
O1198     Co1218   1.963       .  S
O1199      C1207   1.268       .  A
O1199     Co1219   2.014       .  S
O1201      C1209   1.267       .  A
O1201     Co1221   1.978       .  S
O1202      C1208   1.248       .  A
O1202     Co1219   2.044       .  S
O1203      C1209   1.272       .  A
O1203     Co1218   2.018       .  S
O1204      C1207   1.259       .  A
O1204     Co1221   1.971       .  S
C1207      C1476   1.431       .  S
C1209      C1521   1.447       .  S
O1210      C1223   1.253       .  A
O1210     Co1734   1.954       .  S
O1211      C1224   1.289       .  A
O1211     Co1735   1.966       .  S
O1213      C1226   1.274       .  A
O1213     Co1737   2.024   1_545  S
O1214      C1226   1.269       .  A
O1214     Co1735   1.987       .  S
O1215      C1225   1.259       .  A
O1215     Co1734   1.996       .  S
O1216      C1223   1.266       .  A
O1216     Co1737   2.017   1_545  S
Co1218     O1726   1.954       .  S
Co1218     O1731   1.996       .  S
Co1218     O1222   2.051       .  S
Co1219     O1727   1.966       .  S
Co1219     O1730   1.987       .  S
Co1219     O1222   2.085       .  S
Co1220     O1222   2.022       .  S
Co1221     O1729   2.024       .  S
Co1221     O1732   2.017       .  S
Co1221     O1222   2.051       .  S
C1223      C1520   1.434       .  S
C1226      C1481   1.444       .  S
O1228      C1236   1.262       .  A
O1228     Co1248   1.988       .  S
O1229      C1237   1.290       .  A
O1229     Co1249   2.044       .  S
O1230      C1238   1.269       .  A
O1230     Co1250   2.012       .  S
O1231      C1237   1.274       .  A
O1231     Co1248   1.905   1_556  S
O1233      C1236   1.261       .  A
O1233     Co1250   1.998       .  S
O1234      C1235   1.289       .  A
O1234     Co1249   2.056       .  S
C1236      C1440   1.442       .  S
C1237      C1461   1.422       .  S
O1240      C1253   1.258       .  A
O1240     Co1248   1.985   1_556  S
O1241      C1254   1.260       .  A
O1241     Co1249   1.999       .  S
O1242      C1255   1.268       .  A
O1242     Co1250   1.983       .  S
O1243      C1255   1.276       .  A
O1243     Co1248   2.022       .  S
O1245      C1252   1.260       .  A
O1245     Co1250   1.962       .  S
O1246      C1253   1.255       .  A
O1246     Co1249   1.971       .  S
Co1247     O1251   1.945       .  S
Co1248     O1251   1.926       .  S
Co1249     O1251   2.116   1_556  S
Co1250     O1251   2.033       .  S
C1253      C1453   1.425       .  S
C1255      C1445   1.445       .  S
N1256      C1261   1.350       .  A
N1256      C1260   1.355       .  A
N1256      H1288   1.038       .  S
N1257      C1264   1.349       .  A
N1257      C1265   1.349       .  A
N1258      C1263   1.355       .  A
N1258      C1262   1.354       .  A
N1258      H1289   1.039       .  S
N1259      C1266   1.351       .  A
N1259      C1267   1.353       .  A
C1260      C1268   1.387       .  A
C1260      C1276   1.415       .  A
C1261      C1277   1.413       .  A
C1261      C1269   1.389       .  A
C1262      C1270   1.387       .  A
C1262      C1279   1.415       .  A
C1263      C1278   1.415       .  A
C1263      C1271   1.387       .  A
C1264      C1276   1.407       .  A
C1264      C1272   1.386       .  A
C1265      C1279   1.408       .  A
C1265      C1273   1.387       .  A
C1266      C1274   1.388       .  A
C1266      C1277   1.413       .  A
C1267      C1275   1.386       .  A
C1267      C1278   1.413       .  A
C1268      C1269   1.379       .  A
C1268      H1280   1.082       .  S
C1269      H1281   1.082       .  S
C1270      C1271   1.377       .  A
C1270      H1282   1.082       .  S
C1271      H1283   1.082       .  S
C1272      C1273   1.371       .  A
C1272      H1284   1.082       .  S
C1273      H1285   1.082       .  S
C1274      C1275   1.373       .  A
C1274      H1286   1.082       .  S
C1275      H1287   1.082       .  S
C1276      C1460   1.450       .  S
C1277      C1456   1.443       .  S
C1278      C1432   1.458       .  S
C1279      C1436   1.449       .  S
N1290      C1295   1.351       .  A
N1290      C1294   1.356       .  A
N1290      H1322   1.036       .  S
N1291      C1298   1.351       .  A
N1291      C1299   1.350       .  A
N1292      C1297   1.356       .  A
N1292      C1296   1.351       .  A
N1292      H1323   1.037       .  S
N1293      C1300   1.351       .  A
N1293      C1301   1.354       .  A
C1294      C1302   1.388       .  A
C1294      C1310   1.416       .  A
C1295      C1311   1.415       .  A
C1295      C1303   1.388       .  A
C1296      C1304   1.388       .  A
C1296      C1313   1.412       .  A
C1297      C1312   1.416       .  A
C1297      C1305   1.388       .  A
C1298      C1310   1.412       .  A
C1298      C1306   1.387       .  A
C1299      C1313   1.411       .  A
C1299      C1307   1.387       .  A
C1300      C1308   1.389       .  A
C1300      C1311   1.418       .  A
C1301      C1309   1.384       .  A
C1301      C1312   1.414       .  A
C1302      C1303   1.377       .  A
C1302      H1314   1.082       .  S
C1303      H1315   1.082       .  S
C1304      C1305   1.370       .  A
C1304      H1316   1.082       .  S
C1305      H1317   1.082       .  S
C1306      C1307   1.373       .  A
C1306      H1318   1.082       .  S
C1307      H1319   1.082       .  S
C1308      C1309   1.376       .  A
C1308      H1320   1.082       .  S
C1309      H1321   1.082       .  S
C1310      C1421   1.454       .  S
C1311      C1425   1.449       .  S
C1312      C1465   1.462       .  S
C1313      C1464   1.442       .  S
O1324      C1332   1.262       .  A
O1324     Co1344   1.973       .  S
O1325      C1333   1.274       .  A
O1325     Co1345   2.018       .  S
O1326      C1334   1.249       .  A
O1326     Co1862   2.045       .  S
O1327      C1335   1.272       .  A
O1327     Co1347   2.014       .  S
O1328      C1334   1.237       .  A
O1328     Co1345   1.983       .  S
O1329      C1335   1.269       .  A
O1329     Co1344   1.981       .  S
O1330      C1333   1.262       .  A
O1330     Co1863   1.961   1_545  S
O1331      C1332   1.266       .  A
O1331     Co1346   2.000       .  S
C1332      C1492   1.426       .  S
C1333      C1424   1.434       .  S
C1334      C1488   1.454       .  S
C1335      C1429   1.444       .  S
O1336      C1349   1.265       .  A
O1336     Co1344   2.016       .  S
O1337      C1350   1.293       .  A
O1337     Co1345   1.991       .  S
O1338      C1351   1.270       .  A
O1338     Co1346   1.994       .  S
O1339      C1352   1.258       .  A
O1339     Co1863   1.992   1_545  S
O1340      C1352   1.255       .  A
O1340     Co1345   1.982       .  S
O1341      C1351   1.274       .  A
O1341     Co1344   2.024       .  S
O1342      C1349   1.253       .  A
O1342     Co1347   1.956       .  S
O1343      C1350   1.290       .  A
O1343     Co1862   1.967       .  S
Co1344     O1348   2.052       .  S
Co1345     O1864   2.026   1_545  S
Co1346     O1842   2.045       .  S
Co1346     O1859   1.967       .  S
Co1346     O1348   2.081       .  S
Co1347     O1846   1.961       .  S
Co1347     O1855   1.992       .  S
Co1347     O1348   2.049       .  S
O1348     Co1861   2.026       .  S
C1350      C1493   1.428       .  S
C1351      C1500   1.447       .  S
N1353      C1358   1.355       .  A
N1353      C1357   1.357       .  A
N1353      H1385   1.030       .  S
N1354      C1361   1.351       .  A
N1354      C1362   1.350       .  A
N1355      C1360   1.356       .  A
N1355      C1359   1.354       .  A
N1355      H1386   1.031       .  S
N1356      C1363   1.354       .  A
N1356      C1364   1.355       .  A
C1357      C1365   1.386       .  A
C1357      C1373   1.418       .  A
C1358      C1374   1.420       .  A
C1358      C1366   1.389       .  A
C1359      C1367   1.388       .  A
C1359      C1376   1.415       .  A
C1360      C1375   1.417       .  A
C1360      C1368   1.387       .  A
C1361      C1373   1.413       .  A
C1361      C1369   1.388       .  A
C1362      C1376   1.410       .  A
C1362      C1370   1.387       .  A
C1363      C1371   1.388       .  A
C1363      C1374   1.419       .  A
C1364      C1372   1.385       .  A
C1364      C1375   1.416       .  A
C1365      C1366   1.379       .  A
C1365      H1377   1.082       .  S
C1366      H1378   1.082       .  S
C1367      C1368   1.373       .  A
C1367      H1379   1.082       .  S
C1368      H1380   1.082       .  S
C1369      C1370   1.370       .  A
C1369      H1381   1.082       .  S
C1370      H1382   1.083       .  S
C1371      C1372   1.375       .  A
C1371      H1383   1.082       .  S
C1372      H1384   1.082       .  S
C1373      C1441   1.454       .  S
C1374      C1437   1.458       .  S
C1375      C1484   1.462       .  S
C1376      C1477   1.445       .  S
N1387      C1392   1.347       .  A
N1387      C1391   1.355       .  A
N1387      H1419   1.039       .  S
N1388      C1395   1.354       .  A
N1388      C1396   1.348       .  A
N1389      C1394   1.360       .  A
N1389      C1393   1.354       .  A
N1389      H1420   1.037       .  S
N1390      C1397   1.350       .  A
N1390      C1398   1.353       .  A
C1391      C1399   1.386       .  A
C1391      C1407   1.409       .  A
C1392      C1408   1.408       .  A
C1392      C1400   1.390       .  A
C1393      C1401   1.388       .  A
C1393      C1410   1.422       .  A
C1394      C1409   1.423       .  A
C1394      C1402   1.386       .  A
C1395      C1407   1.409       .  A
C1395      C1403   1.382       .  A
C1396      C1410   1.415       .  A
C1396      C1404   1.391       .  A
C1397      C1405   1.387       .  A
C1397      C1408   1.410       .  A
C1398      C1406   1.387       .  A
C1398      C1409   1.414       .  A
C1399      C1400   1.370       .  A
C1399      H1411   1.082       .  S
C1400      H1412   1.082       .  S
C1401      C1402   1.380       .  A
C1401      H1413   1.082       .  S
C1402      H1414   1.082       .  S
C1403      C1404   1.373       .  A
C1403      H1415   1.082       .  S
C1404      H1416   1.082       .  S
C1405      C1406   1.375       .  A
C1405      H1417   1.082       .  S
C1406      H1418   1.082       .  S
C1407      C1448   1.459       .  S
C1408      C1452   1.435       .  S
C1409      C1469   1.467       .  S
C1410      C1473   1.448       .  S
C1421      C1422   1.207       .  T
C1422      C1423   1.413       .  S
C1423      C1424   1.206       .  T
C1425      C1426   1.205       .  T
C1426      C1427   1.410       .  S
C1427      C1428   1.205       .  T
C1429      C1430   1.211       .  T
C1430      C1431   1.421       .  S
C1431      C1432   1.211       .  T
C1433      C1434   1.205   1_455  T
C1434      C1435   1.411       .  S
C1435      C1436   1.206       .  T
C1437      C1438   1.211       .  T
C1438      C1439   1.420       .  S
C1439      C1440   1.211       .  T
C1441      C1442   1.208       .  T
C1442      C1443   1.414       .  S
C1443      C1444   1.207       .  T
C1445      C1446   1.212       .  T
C1446      C1447   1.421       .  S
C1447      C1448   1.212       .  T
C1449      C1450   1.196       .  T
C1450      C1451   1.398       .  S
C1451      C1452   1.197       .  T
C1453      C1454   1.200       .  T
C1454      C1455   1.404       .  S
C1455      C1456   1.201       .  T
C1457      C1458   1.205       .  T
C1458      C1459   1.412       .  S
C1459      C1460   1.206       .  T
C1461      C1462   1.199       .  T
C1462      C1463   1.402       .  S
C1463      C1464   1.200       .  T
C1465      C1466   1.214       .  T
C1466      C1467   1.425       .  S
C1467      C1468   1.214       .  T
C1469      C1470   1.217       .  T
C1470      C1471   1.429       .  S
C1471      C1472   1.216       .  T
C1473      C1474   1.205       .  T
C1474      C1475   1.410       .  S
C1475      C1476   1.204       .  T
C1477      C1478   1.202       .  T
C1478      C1479   1.405       .  S
C1479      C1480   1.201       .  T
C1481      C1482   1.212       .  T
C1482      C1483   1.423       .  S
C1483      C1484   1.213       .  T
C1485      C1486   1.220       .  T
C1486      C1487   1.434       .  S
C1487      C1488   1.219       .  T
C1489      C1490   1.202       .  T
C1490      C1491   1.405       .  S
C1491      C1492   1.201       .  T
C1493      C1494   1.202       .  T
C1495      C1496   1.202       .  T
C1497      C1498   1.215       .  T
C1499      C1500   1.214       .  T
C1501      C1502   1.220       .  T
C1502      C1503   1.434       .  S
C1503      C1504   1.219       .  T
C1505      C1506   1.208       .  T
C1506      C1507   1.415       .  S
C1507      C1508   1.208       .  T
C1509      C1510   1.198       .  T
C1510      C1511   1.399       .  S
C1511      C1512   1.197       .  T
C1513      C1514   1.215       .  T
C1514      C1515   1.426       .  S
C1515      C1516   1.214       .  T
C1517      C1518   1.207       .  T
C1518      C1519   1.412       .  S
C1519      C1520   1.205       .  T
C1521      C1522   1.213       .  T
C1522      C1523   1.423       .  S
C1523      C1524   1.213       .  T
C1525      C1526   1.218       .  T
C1526      C1527   1.432       .  S
C1527      C1528   1.218       .  T
C1529      C1530   1.211       .  T
C1530      C1531   1.421       .  S
C1531      C1532   1.212       .  T
C1533      C1534   1.212       .  T
C1534      C1535   1.422   1_455  S
C1535      C1536   1.212       .  T
C1537      C1538   1.204       .  T
C1538      C1539   1.408       .  S
C1539      C1540   1.203       .  T
C1541      C1542   1.205       .  T
C1542      C1543   1.410       .  S
C1543      C1544   1.204       .  T
C1545      C1546   1.208       .  T
C1546      C1547   1.415       .  S
C1547      C1548   1.207       .  T
N1549      C1554   1.355       .  A
N1549      C1553   1.352       .  A
N1549      H1581   1.035       .  S
N1550      C1557   1.351       .  A
N1550      C1558   1.354       .  A
N1551      C1556   1.354       .  A
N1551      C1555   1.354       .  A
N1551      H1582   1.034       .  S
N1552      C1559   1.352       .  A
N1552      C1560   1.349       .  A
C1553      C1561   1.390       .  A
C1553      C1569   1.415       .  A
C1554      C1570   1.411       .  A
C1554      C1562   1.385       .  A
C1555      C1563   1.386       .  A
C1555      C1572   1.414       .  A
C1556      C1571   1.416       .  A
C1556      C1564   1.388       .  A
C1557      C1569   1.414       .  A
C1557      C1565   1.387       .  A
C1558      C1572   1.416       .  A
C1558      C1566   1.387       .  A
C1559      C1567   1.385       .  A
C1559      C1570   1.409       .  A
C1560      C1568   1.389       .  A
C1560      C1571   1.413       .  A
C1561      C1562   1.374       .  A
C1561      H1573   1.082       .  S
C1562      H1574   1.082       .  S
C1563      C1564   1.378       .  A
C1563      H1575   1.082       .  S
C1564      H1576   1.082       .  S
C1565      C1566   1.377       .  A
C1565      H1577   1.082       .  S
C1566      H1578   1.082       .  S
C1567      C1568   1.372       .  A
C1567      H1579   1.082       .  S
C1568      H1580   1.082       .  S
C1569      C2057   1.448       .  S
C1570      C2061   1.453       .  S
C1571      C2053   1.448       .  S
C1572      C2052   1.459       .  S
N1583      C1588   1.355       .  A
N1583      C1587   1.353       .  A
N1583      H1615   1.037       .  S
N1584      C1591   1.352       .  A
N1584      C1592   1.354       .  A
N1585      C1590   1.356       .  A
N1585      C1589   1.359       .  A
N1585      H1616   1.039       .  S
N1586      C1593   1.355       .  A
N1586      C1594   1.352       .  A
C1587      C1595   1.389       .  A
C1587      C1603   1.417       .  A
C1588      C1604   1.416       .  A
C1588      C1596   1.386       .  A
C1589      C1597   1.385       .  A
C1589      C1606   1.422       .  A
C1590      C1605   1.424       .  A
C1590      C1598   1.389       .  A
C1591      C1603   1.415       .  A
C1591      C1599   1.387       .  A
C1592      C1606   1.415       .  A
C1592      C1600   1.387       .  A
C1593      C1601   1.386       .  A
C1593      C1604   1.417       .  A
C1594      C1602   1.388       .  A
C1594      C1605   1.417       .  A
C1595      C1596   1.378       .  A
C1595      H1607   1.082       .  S
C1596      H1608   1.082       .  S
C1597      C1598   1.381       .  A
C1597      H1609   1.082       .  S
C1598      H1610   1.082       .  S
C1599      C1600   1.372       .  A
C1599      H1611   1.082       .  S
C1600      H1612   1.082       .  S
C1601      C1602   1.375       .  A
C1601      H1613   1.082       .  S
C1602      H1614   1.082       .  S
C1603      C2033   1.452       .  S
C1604      C2040   1.461       .  S
C1605      C2048   1.459       .  S
C1606      C2044   1.469       .  S
O1617      C1625   1.254       .  A
O1617     Co1637   1.992       .  S
O1618      C1626   1.276       .  A
O1618     Co1638   1.985       .  S
O1619      C1627   1.281       .  A
O1619     Co1639   1.981       .  S
O1620      C1628   1.261       .  A
O1621      C1627   1.284       .  A
O1621     Co1638   1.982       .  S
O1622      C1628   1.253       .  A
O1622     Co1637   1.971       .  S
O1623      C1626   1.278       .  A
O1623     Co1640   2.030       .  S
O1624      C1625   1.248       .  A
C1625      C2064   1.437       .  S
C1626      C2020   1.454       .  S
C1627      C2060   1.433       .  S
C1628      C2024   1.438       .  S
O1629      C1642   1.280       .  A
O1629     Co1637   2.035       .  S
O1630      C1643   1.255       .  A
O1630     Co1638   2.049       .  S
O1631      C1644   1.297       .  A
O1632      C1645   1.256       .  A
O1632     Co1640   1.965       .  S
O1633      C1645   1.264       .  A
O1633     Co1638   2.002       .  S
O1634      C1644   1.275       .  A
O1634     Co1637   2.003       .  S
O1635      C1642   1.270       .  A
O1636      C1643   1.261       .  A
O1636     Co1639   2.001       .  S
Co1638     O1641   2.087       .  S
Co1639     O1641   2.017       .  S
Co1640     O1641   2.041       .  S
C1642      C2032   1.448       .  S
C1643      C2041   1.452       .  S
C1644      C2045   1.443       .  S
C1645      C2028   1.420       .  S
N1646      C1651   1.361       .  A
N1646      C1650   1.354       .  A
N1646      H1678   1.037       .  S
N1647      C1654   1.351       .  A
N1647      C1655   1.356       .  A
N1648      C1653   1.352       .  A
N1648      C1652   1.357       .  A
N1648      H1679   1.038       .  S
N1649      C1656   1.355       .  A
N1649      C1657   1.351       .  A
C1650      C1658   1.389       .  A
C1650      C1666   1.423       .  A
C1651      C1667   1.423       .  A
C1651      C1659   1.386       .  A
C1652      C1669   1.415       .  A
C1653      C1668   1.415       .  A
C1654      C1666   1.419       .  A
C1654      C1662   1.390       .  A
C1655      C1669   1.415       .  A
C1655      C1663   1.384       .  A
C1656      C1664   1.386       .  A
C1656      C1667   1.416       .  A
C1657      C1665   1.388       .  A
C1657      C1668   1.414       .  A
C1658      C1659   1.379       .  A
C1658      H1670   1.082       .  S
C1659      H1671   1.082       .  S
C1660      C1661   1.373       .  A
C1660      H1672   1.082       .  S
C1661      H1673   1.082       .  S
C1662      C1663   1.375       .  A
C1662      H1674   1.082       .  S
C1663      H1675   1.082       .  S
C1664      C1665   1.373       .  A
C1664      H1676   1.082       .  S
C1665      H1677   1.082       .  S
C1666      C2021   1.454       .  S
C1667      C2017   1.472       .  S
C1668      C2012   1.445       .  S
C1669      C2013   1.465       .  S
N1680      C1685   1.362       .  A
N1680      C1684   1.354       .  A
N1680      H1712   1.038       .  S
N1681      C1688   1.347       .  A
N1681      C1689   1.356       .  A
N1682      C1687   1.347       .  A
N1682      C1686   1.357       .  A
N1682      H1713   1.039       .  S
N1683      C1690   1.354       .  A
N1683      C1691   1.350       .  A
C1684      C1692   1.390       .  A
C1684      C1700   1.423       .  A
C1685      C1701   1.423       .  A
C1685      C1693   1.385       .  A
C1686      C1694   1.386       .  A
C1686      C1703   1.411       .  A
C1687      C1702   1.409       .  A
C1687      C1695   1.390       .  A
C1688      C1700   1.415       .  A
C1688      C1696   1.391       .  A
C1689      C1703   1.411       .  A
C1689      C1697   1.383       .  A
C1690      C1698   1.386       .  A
C1690      C1701   1.414       .  A
C1691      C1699   1.387       .  A
C1691      C1702   1.411       .  A
C1692      C1693   1.379       .  A
C1692      H1704   1.082       .  S
C1693      H1705   1.082       .  S
C1694      C1695   1.372       .  A
C1694      H1706   1.082       .  S
C1695      H1707   1.082       .  S
C1696      C1697   1.374       .  A
C1696      H1708   1.082       .  S
C1697      H1709   1.082       .  S
C1698      C1699   1.375       .  A
C1698      H1710   1.082       .  S
C1699      H1711   1.082       .  S
C1700      C2005   1.444       .  S
C1701      C2001   1.472       .  S
C1702      C2025   1.436       .  S
C1703      C2029   1.464       .  S
O1714      C1722   1.263       .  A
O1714     Co1734   1.963   1_565  S
O1715      C1723   1.268   1_545  A
O1715     Co1735   2.014       .  S
O1717      C1725   1.267       .  A
O1717     Co1737   1.978       .  S
O1718      C1724   1.248       .  A
O1718     Co1735   2.044   1_565  S
O1719      C1725   1.272       .  A
O1719     Co1734   2.018   1_565  S
O1720      C1723   1.259       .  A
O1720     Co1737   1.971       .  S
C1723      C1992   1.431       .  S
C1725      C2037   1.447       .  S
O1726      C1739   1.253       .  A
O1727      C1740   1.289       .  A
O1729      C1742   1.274       .  A
O1730      C1742   1.269       .  A
O1731      C1741   1.259       .  A
O1732      C1739   1.266       .  A
Co1734     O1738   2.051       .  S
Co1735     O1738   2.085       .  S
Co1736     O1738   2.022       .  S
Co1737     O1738   2.051   1_565  S
C1739      C2036   1.434       .  S
C1742      C1997   1.444       .  S
O1744      C1752   1.262       .  A
O1744     Co1764   1.988       .  S
O1745      C1753   1.290       .  A
O1745     Co1765   2.044       .  S
O1746      C1754   1.269       .  A
O1746     Co1766   2.012       .  S
O1747      C1753   1.274       .  A
O1747     Co1764   1.905   1_556  S
O1749      C1752   1.261       .  A
O1749     Co1766   1.998       .  S
O1750      C1751   1.289       .  A
O1750     Co1765   2.056       .  S
C1752      C1956   1.442       .  S
C1753      C1977   1.422       .  S
O1756      C1769   1.258       .  A
O1756     Co1764   1.985   1_556  S
O1757      C1770   1.260       .  A
O1757     Co1765   1.999       .  S
O1758      C1771   1.268       .  A
O1758     Co1766   1.983       .  S
O1759      C1771   1.276       .  A
O1759     Co1764   2.022       .  S
O1761      C1768   1.260       .  A
O1761     Co1766   1.962       .  S
O1762      C1769   1.255       .  A
O1762     Co1765   1.971       .  S
Co1763     O1767   1.945       .  S
Co1764     O1767   1.926       .  S
Co1765     O1767   2.116   1_556  S
Co1766     O1767   2.033       .  S
C1769      C1969   1.425       .  S
C1771      C1961   1.445       .  S
N1772      C1777   1.350       .  A
N1772      C1776   1.355       .  A
N1772      H1804   1.038       .  S
N1773      C1780   1.349       .  A
N1773      C1781   1.349       .  A
N1774      C1779   1.355       .  A
N1774      C1778   1.354       .  A
N1774      H1805   1.039       .  S
N1775      C1782   1.351       .  A
N1775      C1783   1.353       .  A
C1776      C1784   1.387       .  A
C1776      C1792   1.415       .  A
C1777      C1793   1.413       .  A
C1777      C1785   1.389       .  A
C1778      C1786   1.387       .  A
C1778      C1795   1.415       .  A
C1779      C1794   1.415       .  A
C1779      C1787   1.387       .  A
C1780      C1792   1.407       .  A
C1780      C1788   1.386       .  A
C1781      C1795   1.408       .  A
C1781      C1789   1.387       .  A
C1782      C1790   1.388       .  A
C1782      C1793   1.413       .  A
C1783      C1791   1.386       .  A
C1783      C1794   1.413       .  A
C1784      C1785   1.379       .  A
C1784      H1796   1.082       .  S
C1785      H1797   1.082       .  S
C1786      C1787   1.377       .  A
C1786      H1798   1.082       .  S
C1787      H1799   1.082       .  S
C1788      C1789   1.371       .  A
C1788      H1800   1.082       .  S
C1789      H1801   1.082       .  S
C1790      C1791   1.373       .  A
C1790      H1802   1.082       .  S
C1791      H1803   1.082       .  S
C1792      C1976   1.450       .  S
C1793      C1972   1.443       .  S
C1794      C1948   1.458       .  S
C1795      C1952   1.449       .  S
N1806      C1811   1.351       .  A
N1806      C1810   1.356       .  A
N1806      H1838   1.036       .  S
N1807      C1814   1.351       .  A
N1807      C1815   1.350       .  A
N1808      C1813   1.356       .  A
N1808      C1812   1.351       .  A
N1808      H1839   1.037       .  S
N1809      C1816   1.351       .  A
N1809      C1817   1.354       .  A
C1810      C1818   1.388       .  A
C1810      C1826   1.416       .  A
C1811      C1827   1.415       .  A
C1811      C1819   1.388       .  A
C1812      C1820   1.388       .  A
C1812      C1829   1.412       .  A
C1813      C1828   1.416       .  A
C1813      C1821   1.388       .  A
C1814      C1826   1.412       .  A
C1814      C1822   1.387       .  A
C1815      C1829   1.411       .  A
C1815      C1823   1.387       .  A
C1816      C1824   1.389       .  A
C1816      C1827   1.418       .  A
C1817      C1825   1.384       .  A
C1817      C1828   1.414       .  A
C1818      C1819   1.377       .  A
C1818      H1830   1.082       .  S
C1819      H1831   1.082       .  S
C1820      C1821   1.370       .  A
C1820      H1832   1.082       .  S
C1821      H1833   1.082       .  S
C1822      C1823   1.373       .  A
C1822      H1834   1.082       .  S
C1823      H1835   1.082       .  S
C1824      C1825   1.376       .  A
C1824      H1836   1.082       .  S
C1825      H1837   1.082       .  S
C1826      C1937   1.454       .  S
C1827      C1941   1.449       .  S
C1828      C1981   1.462       .  S
C1829      C1980   1.442       .  S
O1840      C1848   1.262       .  A
O1840     Co1860   1.973       .  S
O1841      C1849   1.274       .  A
O1841     Co1861   2.018       .  S
O1842      C1850   1.249       .  A
O1843      C1851   1.272       .  A
O1843     Co1863   2.014       .  S
O1844      C1850   1.237       .  A
O1844     Co1861   1.983       .  S
O1845      C1851   1.269       .  A
O1845     Co1860   1.981       .  S
O1846      C1849   1.262       .  A
O1847      C1848   1.266       .  A
O1847     Co1862   2.000   1_565  S
C1848      C2008   1.426       .  S
C1849      C1940   1.434       .  S
C1850      C2004   1.454       .  S
C1851      C1945   1.444       .  S
O1852      C1865   1.265       .  A
O1852     Co1860   2.016       .  S
O1853      C1866   1.293       .  A
O1853     Co1861   1.991       .  S
O1854      C1867   1.270       .  A
O1854     Co1862   1.994   1_565  S
O1855      C1868   1.258       .  A
O1856      C1868   1.255       .  A
O1856     Co1861   1.982       .  S
O1857      C1867   1.274       .  A
O1857     Co1860   2.024       .  S
O1858      C1865   1.253       .  A
O1858     Co1863   1.956       .  S
O1859      C1866   1.290       .  A
Co1860     O1864   2.052       .  S
Co1862     O1864   2.081   1_545  S
Co1863     O1864   2.049       .  S
C1866      C2009   1.428       .  S
C1867      C2016   1.447       .  S
N1869      C1874   1.355       .  A
N1869      C1873   1.357       .  A
N1869      H1901   1.030       .  S
N1870      C1877   1.351       .  A
N1870      C1878   1.350       .  A
N1871      C1876   1.356       .  A
N1871      C1875   1.354       .  A
N1871      H1902   1.031       .  S
N1872      C1879   1.354       .  A
N1872      C1880   1.355       .  A
C1873      C1881   1.386       .  A
C1873      C1889   1.418       .  A
C1874      C1890   1.420       .  A
C1874      C1882   1.389       .  A
C1875      C1883   1.388       .  A
C1875      C1892   1.415       .  A
C1876      C1891   1.417       .  A
C1876      C1884   1.387       .  A
C1877      C1889   1.413       .  A
C1877      C1885   1.388       .  A
C1878      C1892   1.410       .  A
C1878      C1886   1.387       .  A
C1879      C1887   1.388       .  A
C1879      C1890   1.419       .  A
C1880      C1888   1.385       .  A
C1880      C1891   1.416       .  A
C1881      C1882   1.379       .  A
C1881      H1893   1.082       .  S
C1882      H1894   1.082       .  S
C1883      C1884   1.373       .  A
C1883      H1895   1.082       .  S
C1884      H1896   1.082       .  S
C1885      C1886   1.370       .  A
C1885      H1897   1.082       .  S
C1886      H1898   1.083       .  S
C1887      C1888   1.375       .  A
C1887      H1899   1.082       .  S
C1888      H1900   1.082       .  S
C1889      C1957   1.454       .  S
C1890      C1953   1.458       .  S
C1891      C2000   1.462       .  S
C1892      C1993   1.445       .  S
N1903      C1908   1.347       .  A
N1903      C1907   1.355       .  A
N1903      H1935   1.039       .  S
N1904      C1911   1.354       .  A
N1904      C1912   1.348       .  A
N1905      C1910   1.360       .  A
N1905      C1909   1.354       .  A
N1905      H1936   1.037       .  S
N1906      C1913   1.350       .  A
N1906      C1914   1.353       .  A
C1907      C1915   1.386       .  A
C1907      C1923   1.409       .  A
C1908      C1924   1.408       .  A
C1908      C1916   1.390       .  A
C1909      C1917   1.388       .  A
C1909      C1926   1.422       .  A
C1910      C1925   1.423       .  A
C1910      C1918   1.386       .  A
C1911      C1923   1.409       .  A
C1911      C1919   1.382       .  A
C1912      C1926   1.415       .  A
C1912      C1920   1.391       .  A
C1913      C1921   1.387       .  A
C1913      C1924   1.410       .  A
C1914      C1922   1.387       .  A
C1914      C1925   1.414       .  A
C1915      C1916   1.370       .  A
C1915      H1927   1.082       .  S
C1916      H1928   1.082       .  S
C1917      C1918   1.380       .  A
C1917      H1929   1.082       .  S
C1918      H1930   1.082       .  S
C1919      C1920   1.373       .  A
C1919      H1931   1.082       .  S
C1920      H1932   1.082       .  S
C1921      C1922   1.375       .  A
C1921      H1933   1.082       .  S
C1922      H1934   1.082       .  S
C1923      C1964   1.459       .  S
C1924      C1968   1.435       .  S
C1925      C1985   1.467       .  S
C1926      C1989   1.448       .  S
C1937      C1938   1.207       .  T
C1938      C1939   1.413       .  S
C1939      C1940   1.206       .  T
C1941      C1942   1.205       .  T
C1942      C1943   1.410       .  S
C1943      C1944   1.205       .  T
C1945      C1946   1.211       .  T
C1946      C1947   1.421       .  S
C1947      C1948   1.211       .  T
C1949      C1950   1.205   1_455  T
C1950      C1951   1.411       .  S
C1951      C1952   1.206       .  T
C1953      C1954   1.211       .  T
C1954      C1955   1.420       .  S
C1955      C1956   1.211       .  T
C1957      C1958   1.208       .  T
C1958      C1959   1.414       .  S
C1959      C1960   1.207       .  T
C1961      C1962   1.212       .  T
C1962      C1963   1.421       .  S
C1963      C1964   1.212       .  T
C1965      C1966   1.196       .  T
C1966      C1967   1.398       .  S
C1967      C1968   1.197       .  T
C1969      C1970   1.200       .  T
C1970      C1971   1.404       .  S
C1971      C1972   1.201       .  T
C1973      C1974   1.205       .  T
C1974      C1975   1.412       .  S
C1975      C1976   1.206       .  T
C1977      C1978   1.199       .  T
C1978      C1979   1.402       .  S
C1979      C1980   1.200       .  T
C1981      C1982   1.214       .  T
C1982      C1983   1.425       .  S
C1983      C1984   1.214       .  T
C1985      C1986   1.217       .  T
C1986      C1987   1.429       .  S
C1987      C1988   1.216       .  T
C1989      C1990   1.205       .  T
C1990      C1991   1.410       .  S
C1991      C1992   1.204       .  T
C1993      C1994   1.202       .  T
C1994      C1995   1.405       .  S
C1995      C1996   1.201       .  T
C1997      C1998   1.212       .  T
C1998      C1999   1.423       .  S
C1999      C2000   1.213       .  T
C2001      C2002   1.220       .  T
C2002      C2003   1.434       .  S
C2003      C2004   1.219       .  T
C2005      C2006   1.202       .  T
C2006      C2007   1.405       .  S
C2007      C2008   1.201       .  T
C2009      C2010   1.202       .  T
C2011      C2012   1.202       .  T
C2013      C2014   1.215       .  T
C2015      C2016   1.214       .  T
C2017      C2018   1.220       .  T
C2018      C2019   1.434       .  S
C2019      C2020   1.219       .  T
C2021      C2022   1.208       .  T
C2022      C2023   1.415       .  S
C2023      C2024   1.208       .  T
C2025      C2026   1.198       .  T
C2026      C2027   1.399       .  S
C2027      C2028   1.197       .  T
C2029      C2030   1.215       .  T
C2030      C2031   1.426       .  S
C2031      C2032   1.214       .  T
C2033      C2034   1.207       .  T
C2034      C2035   1.412       .  S
C2035      C2036   1.205       .  T
C2037      C2038   1.213       .  T
C2038      C2039   1.423       .  S
C2039      C2040   1.213       .  T
C2041      C2042   1.218       .  T
C2042      C2043   1.432       .  S
C2043      C2044   1.218       .  T
C2045      C2046   1.211       .  T
C2046      C2047   1.421       .  S
C2047      C2048   1.212       .  T
C2049      C2050   1.212       .  T
C2050      C2051   1.422   1_455  S
C2051      C2052   1.212       .  T
C2053      C2054   1.204       .  T
C2054      C2055   1.408       .  S
C2055      C2056   1.203       .  T
C2057      C2058   1.205       .  T
C2058      C2059   1.410       .  S
C2059      C2060   1.204       .  T
C2061      C2062   1.208       .  T
C2062      C2063   1.415       .  S
C2063      C2064   1.207       .  T
