geometry optimzed in LAMMPS
_audit_creation_date              2020-11-30 
_audit_creation_method            'lammps2cif' 
_symmetry_space_group_name_H-M    'P1' 
_symmetry_Int_Tables_number       1 
_symmetry_cell_setting            triclinic 
loop_ 
_symmetry_equiv_pos_as_xyz 
  x,y,z 
_cell_length_a                    41.83900945 
_cell_length_b                    40.652498096077196 
_cell_length_c                    28.197702046118913 
_cell_angle_alpha                 90.13936671791723 
_cell_angle_beta                  92.49703462917967 
_cell_angle_gamma                 118.74423011965199 
loop_ 
_atom_site_label 
_atom_site_type_symbol 
_atom_site_fract_x 
_atom_site_fract_y 
_atom_site_fract_z 
_atom_site_charge 
C1          C  0.30807068  0.15880910  0.03513323     0.31500
C2          C  0.31592371  0.17320223  0.43834895     0.31500
C3          C  0.33270346  0.14384023  0.01612923    -0.04700
C4          C  0.27277828  0.13605759  0.00356066    -0.05500
C5          C  0.32471726  0.19833059  0.01296513    -0.05300
C6          C  0.33831090  0.15735152  0.46523960    -0.04700
C7          C  0.27817527  0.14915864  0.45706833    -0.05500
C8          C  0.32853238  0.21094132  0.46570327    -0.05300
C9          C  0.36006190  0.14183395  0.45374949    -0.30700
N10         N  0.37002037  0.13020546  0.49436505     0.15800
C11         C  0.35113879  0.12614369  0.03485786    -0.30700
H12         H  0.35291674  0.11959038  0.07174308     0.17700
C13         C  0.24400467  0.12782073  0.43643829    -0.29700
N14         N  0.22029554  0.11279840  0.47143137     0.14500
C15         C  0.23640700  0.11079553  0.00923131    -0.29700
C16         C  0.34946744  0.24816849  0.45500159    -0.30000
N17         N  0.37113736  0.25341934  0.99289717     0.15000
H18         H  0.35941671  0.25851628  0.42037695     0.17600
C19         C  0.35277903  0.23276207  0.03004780    -0.30000
H20         H  0.36168529  0.24034998  0.06695697     0.17600
H21         H  0.22329769  0.10242701  0.04263023     0.17600
H22         H  0.36690242  0.13792072  0.41835754     0.17700
H23         H  0.23694975  0.12465622  0.39875781     0.17600
C24         C  0.30556032  0.16417745  0.28596685     0.31500
C25         C  0.30235719  0.15749927  0.18727097     0.31500
C26         C  0.32665406  0.14581820  0.26449541    -0.04700
C27         C  0.26649944  0.14036502  0.26154777    -0.05500
C28         C  0.32065198  0.20102697  0.25827125    -0.05300
C29         C  0.32485647  0.14217961  0.21479361    -0.04700
C30         C  0.26544363  0.13739233  0.21158862    -0.05500
C31         C  0.31892739  0.19739480  0.20865868    -0.05300
C32         C  0.34682780  0.12689982  0.20354871    -0.30700
N33         N  0.36204489  0.12157385  0.24454541     0.15800
C34         C  0.35022160  0.13337789  0.28174358    -0.30700
H35         H  0.35826841  0.13298755  0.31866438     0.17700
C36         C  0.22965530  0.11425151  0.19653257    -0.29700
N37         N  0.20818894  0.10274327  0.23456968     0.14500
C38         C  0.23035103  0.11850017  0.27463042    -0.29700
C39         C  0.33696709  0.23291737  0.19095737    -0.30000
N40         N  0.34964854  0.25820529  0.22794568     0.15000
H41         H  0.34087294  0.23958974  0.15385268     0.17600
C42         C  0.33977779  0.23905501  0.26907845    -0.30000
H43         H  0.34693409  0.25185537  0.30436819     0.17600
H44         H  0.22122712  0.11361199  0.31049286     0.17600
H45         H  0.35213689  0.12106229  0.16814369     0.17700
H46         H  0.21993531  0.10565631  0.16001794     0.17600
N47         N  0.07387247  0.05724409  0.42573442    -0.04600
N48         N  0.10582327  0.06898765  0.44792926    -0.56700
N49         N  0.03555703  0.08422984  0.34641231    -0.04300
N50         N  0.05035317  0.11387336  0.31906213    -0.58800
N51         N  0.03236735  0.09474414  0.38928198    -0.03900
N52         N  0.04417040  0.13094628  0.39188723    -0.56700
N53         N  0.07243177  0.04239942  0.38415426    -0.03600
N54         N  0.10438874  0.04469602  0.37617914    -0.59200
C55         C  0.12464125  0.06085048  0.41684386     0.97600
C56         C  0.05527701  0.14290565  0.34811135     0.97400
N57         N  0.52430487  0.46275642  0.34918601    -0.04800
N58         N  0.53106015  0.43651950  0.33215249    -0.57300
N59         N  0.07372838  0.49063488  0.38768418    -0.02900
N60         N  0.10013393  0.48144770  0.38913048    -0.58500
N61         N  0.04269124  0.46151080  0.37187257    -0.04800
N62         N  0.04770534  0.43271479  0.36116289    -0.57600
N63         N  0.97833445  0.02100986  0.38152634    -0.02500
N64         N  0.96487687  0.04472819  0.37234499    -0.58600
Mn65       Mn  0.02341744  0.02479754  0.33639885     1.18400
C66         C  0.43703401  0.04559640  0.37519229     0.99700
C67         C  0.08353745  0.44538422  0.37246093     1.00300
N68         N  0.48047247  0.08210862  0.46393182    -0.04800
N69         N  0.47358051  0.11049776  0.45967941    -0.61100
N70         N  0.51667377  0.47875148  0.98248133    -0.03600
N71         N  0.53130996  0.45775779  0.99795365    -0.61800
N72         N  0.01971710  0.03866735  0.02331033    -0.04300
N73         N  0.03614657  0.07096790  0.04762370    -0.61400
N74         N  0.45146439  0.05225595  0.47912044    -0.03200
N75         N  0.42489691  0.06026136  0.48625091    -0.62100
Mn76       Mn  0.02863875  0.06081620  0.45046728     1.10700
C77         C  0.43912414  0.09667699  0.47406212     1.00900
C78         C  0.56622415  0.47559431  0.98480596     1.01000
N79         N  0.45870274  0.41995708  0.47301953    -0.04300
N80         N  0.44521984  0.38445168  0.48417941    -0.59700
N81         N  0.42551893  0.46019294  0.39623328    -0.03700
N82         N  0.39116276  0.44930627  0.38424517    -0.56500
N83         N  0.43649227  0.43794013  0.37744476    -0.05000
N84         N  0.40784215  0.40978057  0.35395904    -0.59300
N85         N  0.44061934  0.43512992  0.49218764    -0.04000
N86         N  0.41337076  0.40888996  0.51575582    -0.56500
Mn87       Mn  0.48949961  0.44242477  0.41026001     1.20200
Mn88       Mn  0.44810926  0.49018144  0.46267873     1.10100
Cl89       Cl  0.49212268  0.01601198  0.41170525    -0.84400
C90         C  0.41696844  0.37737386  0.51114932     0.97900
C91         C  0.37963806  0.41767783  0.35825848     0.97700
N92         N  0.04614437  0.02451186  0.24197676    -0.04600
N93         N  0.07493121  0.03922887  0.27289954    -0.56700
N94         N  0.04489201  0.08171752  0.16548462    -0.04300
N95         N  0.06576711  0.11572446  0.14983194    -0.58400
N96         N  0.03019154  0.08309454  0.20528933    -0.03900
N97         N  0.04096030  0.11860285  0.21732102    -0.56700
N98         N  0.05696744  0.02060449  0.20010790    -0.03600
N99         N  0.09207522  0.03070197  0.20278296    -0.59200
C100        C  0.10354098  0.04236283  0.24810257     0.97600
C101        C  0.06296762  0.13858720  0.18221322     0.97400
N102        N  0.50644358  0.52175301  0.08734735    -0.04800
N103        N  0.52670605  0.52134168  0.05334915    -0.57300
N104        N  0.03750732  0.46059011  0.12152091    -0.02900
N105        N  0.06506716  0.45380676  0.11612747    -0.58500
N106        N  0.00904264  0.43049551  0.13720160    -0.04800
N107        N  0.01718773  0.40309875  0.14312248    -0.57600
N108        N  0.97594420  0.01836901  0.14977012    -0.02500
N109        N  0.97130339  0.04871964  0.15582155    -0.58600
Mn110      Mn  0.03244995  0.02756418  0.13269261     1.18400
C111        C  0.44786369  0.06328376  0.12938170     0.99700
C112        C  0.05192972  0.41779429  0.12960921     1.00300
N113        N  0.44808502  0.04621556  0.23393646    -0.04800
N114        N  0.44033107  0.07396753  0.23988207    -0.61100
N115        N  0.48837563  0.46603596  0.24357645    -0.03600
N116        N  0.48969700  0.43563301  0.22959366    -0.61800
N117        N  0.95884827  0.97744221  0.28251970    -0.04300
N118        N  0.93770962  0.98264805  0.31107433    -0.61400
N119        N  0.41856402  0.01537786  0.21803226    -0.03200
N120        N  0.39081504  0.02207127  0.21191857    -0.62100
Mn121      Mn  0.99439003  0.02847459  0.24268705     1.10700
C122        C  0.40435546  0.05823207  0.22607068     1.00900
C123        C  0.52507233  0.44714868  0.22616021     1.01000
N124        N  0.43627607  0.41412185  0.16245352    -0.04300
N125        N  0.42572957  0.37889845  0.14926904    -0.59700
N126        N  0.41162157  0.48050627  0.16794476    -0.03700
N127        N  0.37727318  0.47276605  0.16451938    -0.56500
N128        N  0.42240842  0.47575965  0.12652269    -0.05000
N129        N  0.39441002  0.46318955  0.09471215    -0.59300
N130        N  0.42000367  0.41440167  0.20153883    -0.04000
N131        N  0.39975527  0.38018467  0.21666149    -0.56500
Mn132      Mn  0.47275346  0.46919520  0.12534302     1.20200
Mn133      Mn  0.43788423  0.47195432  0.23737977     1.10100
Cl134      Cl  0.47849788  0.00304245  0.16423393    -0.84400
C135        C  0.40329032  0.35819752  0.18363957     0.97900
C136        C  0.36624973  0.46158886  0.11893928     0.97700
C137        C  0.18096767  0.34192773  0.33420058     0.31500
C138        C  0.18386740  0.33972109  0.43292190     0.31500
C139        C  0.16884746  0.36695139  0.36110286    -0.04700
C140        C  0.15744874  0.30358840  0.35601491    -0.05500
C141        C  0.21905402  0.35330358  0.35844896    -0.05300
C142        C  0.17074838  0.36602518  0.41086080    -0.04700
C143        C  0.15892582  0.30271737  0.40572604    -0.05500
C144        C  0.22055398  0.35237010  0.40847854    -0.05300
C145        C  0.15702611  0.38830948  0.42773466    -0.30700
N146        N  0.14604371  0.40198754  0.39023747     0.15800
C147        C  0.15293791  0.38904417  0.34938981    -0.30700
H148        H  0.14663175  0.39503276  0.31387804     0.17700
C149        C  0.13537084  0.26677295  0.41793810    -0.29700
N150        N  0.11986056  0.24571786  0.37763358     0.14500
C151        C  0.13304207  0.26779445  0.33947009    -0.29700
C152        C  0.25672960  0.36464676  0.42237616    -0.30000
N153        N  0.27710145  0.37222260  0.38323595     0.15000
H154        H  0.26774846  0.36913994  0.45870545     0.17600
C155        C  0.25430323  0.36545288  0.34404072    -0.30000
H156        H  0.26296160  0.37098277  0.30796819     0.17600
H157        H  0.12485247  0.25885313  0.30275281     0.17600
H158        H  0.15411763  0.39327416  0.46461248     0.17700
H159        H  0.12952559  0.25662949  0.45370145     0.17600
C160        C  0.17034116  0.33485293  0.08389637     0.31500
C161        C  0.17247753  0.33941801  0.18231565     0.31500
C162        C  0.15370807  0.35748648  0.10562941    -0.04700
C163        C  0.15036589  0.29704406  0.10994323    -0.05500
C164        C  0.20871153  0.35342104  0.10917908    -0.05300
C165        C  0.15423262  0.35962454  0.15537057    -0.04700
C166        C  0.15163801  0.29978034  0.15971021    -0.05500
C167        C  0.20946138  0.35530924  0.15905007    -0.05300
C168        C  0.13661716  0.37984980  0.16625190    -0.30700
N169        N  0.12643826  0.39033505  0.12485331     0.15800
C170        C  0.13707565  0.37721312  0.08790701    -0.30700
H171        H  0.13216071  0.38095892  0.05079910     0.17700
C172        C  0.13261010  0.26400491  0.17650412    -0.29700
N173        N  0.11969551  0.23920741  0.13896051     0.14500
C174        C  0.13055922  0.25904385  0.09829297    -0.29700
C175        C  0.24443317  0.38074395  0.17423940    -0.30000
N176        N  0.26527255  0.39427323  0.13609128     0.15000
H177        H  0.25345919  0.39094352  0.21048926     0.17600
C178        C  0.24375504  0.37817697  0.09604091    -0.30000
H179        H  0.25201218  0.38623951  0.06025108     0.17600
H180        H  0.12458460  0.24669607  0.06278798     0.17600
H181        H  0.13160651  0.38648585  0.20142502     0.17700
H182        H  0.12920101  0.25671122  0.21347104     0.17600
C183        C  0.17800293  0.34235196  0.28023150    -0.11800
C184        C  0.17484090  0.34157195  0.23637980    -0.13300
C185        C  0.17811538  0.33359687  0.53067280    -0.11800
C186        C  0.18225876  0.33677392  0.48717306    -0.13300
C187        C  0.08223493  0.18027031  0.17995436    -0.14900
C188        C  0.09973144  0.19860292  0.14110873    -0.30100
H189        H  0.08154465  0.19596781  0.21067039     0.14100
H190        H  0.09849088  0.18231772  0.10978653     0.14700
C191        C  0.30245464  0.42435274  0.14069833    -0.14900
C192        C  0.32705515  0.43457537  0.10655153    -0.30100
H193        H  0.31160219  0.43786828  0.17563712     0.14100
H194        H  0.31922409  0.42089952  0.07168110     0.14700
C195        C  0.10685639  0.41112964  0.11939060    -0.14900
C196        C  0.07453650  0.39938048  0.13867846    -0.30100
H197        H  0.11641056  0.43402172  0.09467327     0.14100
H198        H  0.06363295  0.37444405  0.16001047     0.14700
C199        C  0.09244322  0.20704837  0.37844963    -0.14900
C200        C  0.08138896  0.18287465  0.34073653    -0.30100
H201        H  0.08136301  0.19680397  0.41279335     0.14100
H202        H  0.09280189  0.19176468  0.30631869     0.14700
C203        C  0.33930196  0.39026567  0.35391395    -0.14900
C204        C  0.31678641  0.39287676  0.38573174    -0.30100
H205        H  0.32827155  0.36942685  0.32513423     0.14100
H206        H  0.32931510  0.41198750  0.41617615     0.14700
C207        C  0.10200950  0.42257320  0.36568443    -0.14900
C208        C  0.13005978  0.42633064  0.39456996    -0.30100
H209        H  0.09058608  0.40032474  0.33859616     0.14100
H210        H  0.13894197  0.44605236  0.42461938     0.14700
C211        C  0.53965466  0.42232054  0.21742076    -0.17000
C212        C  0.56013136  0.41048835  0.22867618     0.07100
C213        C  0.37975773  0.02056644  0.32635710     0.08900
C214        C  0.40683326  0.04438043  0.34742271    -0.17800
C215        C  0.59578574  0.48355769  0.01857871    -0.17000
C216        C  0.61463127  0.51131003  0.04275967     0.07100
C217        C  0.47185346  0.12078723  0.08484003     0.08900
C218        C  0.44902993  0.09491340  0.10561551    -0.17800
C219        C  0.38683144  0.10628949  0.24883234    -0.14900
C220        C  0.38286292  0.07817353  0.21989822    -0.30100
H221        H  0.40675662  0.11527964  0.27867712     0.14100
H222        H  0.36040089  0.06673975  0.19327660     0.14700
C223        C  0.36951989  0.29862074  0.22531857    -0.14900
C224        C  0.38503134  0.31670851  0.18550694    -0.30100
H225        H  0.37207703  0.31502706  0.25714169     0.14100
H226        H  0.38463586  0.30116160  0.15399334     0.14700
C227        C  0.14356215  0.06782858  0.26167175    -0.14900
C228        C  0.16922210  0.07608151  0.22888192    -0.30100
H229        H  0.15149621  0.08095215  0.29684668     0.14100
H230        H  0.15965169  0.06287977  0.19383865     0.14700
C231        C  0.39038875  0.11000013  0.49807632    -0.14900
C232        C  0.41821069  0.11736278  0.47028431    -0.30100
H233        H  0.38416369  0.08961529  0.52586986     0.14100
H234        H  0.42671955  0.14006749  0.44542662     0.14700
C235        C  0.38739228  0.33778064  0.51833392    -0.14900
C236        C  0.38875686  0.30837412  0.49717705    -0.30100
H237        H  0.36379845  0.33295560  0.53786564     0.14100
H238        H  0.42023672  0.29582484  0.96279828     0.14700
C239        C  0.18137232  0.09160190  0.46518872    -0.14900
C240        C  0.16422098  0.07602297  0.42300376    -0.30100
H241        H  0.16546724  0.08954980  0.49561114     0.14100
H242        H  0.17920545  0.07603036  0.39258344     0.14700
C243        C  0.31488672  0.17257578  0.38401425    -0.11800
C244        C  0.31004345  0.16890675  0.34014322    -0.13300
C245        C  0.30215488  0.15580256  0.13290574    -0.11800
C246        C  0.30407588  0.15689144  0.08902542    -0.13300
C247        C  0.31097697  0.16930249  0.53646931     0.31500
C248        C  0.31533410  0.16078235  0.93748008     0.31500
C249        C  0.33549350  0.15521435  0.51475046    -0.04700
C250        C  0.27534069  0.14711772  0.50623925    -0.05500
C251        C  0.32638738  0.20938925  0.51562333    -0.05300
C252        C  0.33658324  0.14511628  0.96675471    -0.04700
C253        C  0.27722973  0.13739680  0.95458788    -0.05500
C254        C  0.32767933  0.19877031  0.96274146    -0.05300
C255        C  0.35773317  0.12882857  0.95719961    -0.30700
N256        N  0.36648744  0.11748690  0.99881027     0.15800
C257        C  0.35486965  0.13788081  0.53151919    -0.30700
H258        H  0.35734143  0.13081173  0.56800270     0.17700
C259        C  0.24472916  0.11318137  0.93222495    -0.29700
N260        N  0.21985032  0.09728315  0.96531886     0.14500
C261        C  0.23899476  0.12452917  0.51417531    -0.29700
C262        C  0.35664347  0.23267100  0.95253424    -0.30000
N263        N  0.35952485  0.26979870  0.49554963     0.15000
H264        H  0.36876322  0.24020034  0.91836841     0.17600
C265        C  0.34610981  0.24641677  0.53287693    -0.30000
H266        H  0.35328523  0.25518851  0.56982018     0.17600
H267        H  0.22689770  0.11759268  0.54837610     0.17600
H268        H  0.36505482  0.12424484  0.92240202     0.17700
H269        H  0.23940916  0.10746883  0.89444193     0.17600
C270        C  0.30977818  0.15797843  0.78527947     0.31500
C271        C  0.30346300  0.15541270  0.68666912     0.31500
C272        C  0.32652705  0.13654169  0.75950497    -0.04700
C273        C  0.27003762  0.13870494  0.76242325    -0.05500
C274        C  0.32784101  0.19624826  0.76006755    -0.05300
C275        C  0.32299445  0.13524902  0.70967302    -0.04700
C276        C  0.26728764  0.13784726  0.71238978    -0.05500
C277        C  0.32405028  0.19404538  0.71050369    -0.05300
C278        C  0.33698893  0.11310132  0.69356116    -0.30700
N279        N  0.34973734  0.10149852  0.73141794     0.15800
C280        C  0.34367402  0.11564550  0.77193135    -0.30700
H281        H  0.34994100  0.10996137  0.80763121     0.17700
C282        C  0.23120594  0.11483832  0.69883146    -0.29700
N283        N  0.21131250  0.10170233  0.73803686     0.14500
C284        C  0.23469284  0.11593604  0.77716899    -0.29700
C285        C  0.34422818  0.22910256  0.69336820    -0.30000
N286        N  0.36114660  0.25345337  0.73041556     0.15000
H287        H  0.34672493  0.23596681  0.65625109     0.17600
C288        C  0.35115016  0.23393283  0.77148171    -0.30000
H289        H  0.36118982  0.24597262  0.80680625     0.17600
H290        H  0.22707083  0.10835220  0.81321721     0.17600
H291        H  0.33741388  0.10545944  0.65688780     0.17700
H292        H  0.22043613  0.10645406  0.66261224     0.17600
N293        N  0.06960084  0.05947483  0.94945542    -0.04600
N294        N  0.09662711  0.06860555  0.98120402    -0.56700
N295        N  0.04207284  0.08386186  0.85387603    -0.04300
N296        N  0.05863917  0.11197134  0.82480236    -0.58800
N297        N  0.03343460  0.09554145  0.89224230    -0.03900
N298        N  0.04349398  0.13138269  0.88997916    -0.56700
N299        N  0.07371552  0.04368082  0.91155145    -0.03600
N300        N  0.10500493  0.04291613  0.91593490    -0.59200
C301        C  0.11858076  0.05816710  0.96009702     0.97600
C302        C  0.05898589  0.14154222  0.84774903     0.97400
N303        N  0.47116203  0.45593509  0.83074385    -0.04800
N304        N  0.45864994  0.42499410  0.80441013    -0.57300
N305        N  0.07403426  0.49514196  0.88869566    -0.02900
N306        N  0.10055535  0.48657359  0.89496335    -0.58500
N307        N  0.04377347  0.46526031  0.87236996    -0.04800
N308        N  0.04950738  0.43630499  0.86657147    -0.57600
N309        N  0.98063932  0.02117354  0.88130485    -0.02500
N310        N  0.96789038  0.04405391  0.86479256    -0.58600
Mn311      Mn  0.03203847  0.02551949  0.85155283     1.18400
C312        C  0.43265422  0.03677009  0.87941750     0.99700
C313        C  0.08506871  0.45015373  0.88080966     1.00300
N314        N  0.47884576  0.07383844  0.96660022    -0.04800
N315        N  0.47071327  0.10132223  0.96334816    -0.61100
N316        N  0.46819746  0.52408182  0.52804092    -0.03600
N317        N  0.44240187  0.53108112  0.54271123    -0.61800
N318        N  0.03532438  0.03211178  0.50879880    -0.04300
N319        N  0.05894428  0.06198276  0.53415901    -0.61400
N320        N  0.45097156  0.04340148  0.98267483    -0.03200
N321        N  0.42381678  0.05009352  0.99144871    -0.62100
Mn322      Mn  0.02158197  0.06358810  0.95756415     1.10700
C323        C  0.43673540  0.08637821  0.97934540     1.00900
C324        C  0.45952920  0.56797638  0.55236911     1.01000
N325        N  0.45901616  0.40178477  0.96717268    -0.04300
N326        N  0.44971428  0.36600163  0.97030011    -0.59700
N327        N  0.41330229  0.45044844  0.94399495    -0.03700
N328        N  0.38139633  0.44969952  0.94125675    -0.56500
N329        N  0.41760989  0.43470533  0.90611870    -0.05000
N330        N  0.38909964  0.42329374  0.87593903    -0.59300
N331        N  0.45111041  0.41336836  0.00628882    -0.04000
N332        N  0.43674318  0.38605534  0.03688027    -0.56500
Mn333      Mn  0.46905564  0.43377016  0.89911276     1.20200
Mn334      Mn  0.46116431  0.47336721  0.00078635     1.10100
Cl335      Cl  0.49133907  0.01045412  0.91044435    -0.84400
C336        C  0.43609481  0.35637774  0.01391287     0.97900
C337        C  0.36667450  0.43278408  0.89833620     0.97700
N338        N  0.05219779  0.02331050  0.74956271    -0.04600
N339        N  0.08045994  0.03634921  0.78125477    -0.56700
N340        N  0.05583631  0.08376454  0.67607559    -0.04300
N341        N  0.07601151  0.11778792  0.66037693    -0.58400
N342        N  0.03942331  0.08467358  0.71442419    -0.03900
N343        N  0.04808738  0.11984466  0.72526322    -0.56700
N344        N  0.06293800  0.01860188  0.70806807    -0.03600
N345        N  0.09723333  0.02603042  0.71179734    -0.59200
C346        C  0.10863316  0.03767167  0.75708610     0.97600
C347        C  0.07081649  0.14005250  0.69095548     0.97400
N348        N  0.48775628  0.51027610  0.63485335    -0.04800
N349        N  0.46310036  0.52142551  0.64390708    -0.57300
N350        N  0.04293003  0.45972980  0.62340954    -0.02900
N351        N  0.07021989  0.45260165  0.61821586    -0.58500
N352        N  0.01400447  0.42966708  0.63833489    -0.04800
N353        N  0.02165213  0.40192922  0.64423253    -0.57600
N354        N  0.98572840  0.02654943  0.64941785    -0.02500
N355        N  0.98447422  0.05839820  0.65582193    -0.58600
Mn356      Mn  0.04279069  0.03054879  0.64033801     1.18400
C357        C  0.45025432  0.05563485  0.63392734     0.99700
C358        C  0.05649029  0.41646151  0.63116181     1.00300
N359        N  0.45508044  0.04423845  0.73715300    -0.04800
N360        N  0.45015136  0.07271581  0.74985768    -0.61100
N361        N  0.51309634  0.46632525  0.69020101    -0.03600
N362        N  0.51587595  0.43615050  0.67886503    -0.61800
N363        N  0.96541381  0.97612073  0.78178485    -0.04300
N364        N  0.94246908  0.97799519  0.81020523    -0.61400
N365        N  0.42374441  0.01494352  0.72243479    -0.03200
N366        N  0.39717758  0.02383611  0.72373905    -0.62100
Mn367      Mn  0.00209036  0.02981983  0.74807319     1.10700
C368        C  0.41400167  0.05977637  0.74108194     1.00900
C369        C  0.55113599  0.44561464  0.68650707     1.01000
N370        N  0.44789519  0.40270332  0.64717129    -0.04300
N371        N  0.43570536  0.36651296  0.63772603    -0.59700
N372        N  0.41406585  0.45512254  0.65699880    -0.03700
N373        N  0.38202394  0.45253844  0.66206136    -0.56500
N374        N  0.41897919  0.45036305  0.61257047    -0.05000
N375        N  0.38972348  0.44369393  0.58585935    -0.59300
N376        N  0.43993697  0.40658030  0.69069507    -0.04000
N377        N  0.42346406  0.37439137  0.71224702    -0.56500
Mn378      Mn  0.47184195  0.45405736  0.59745995     1.20200
Mn379      Mn  0.46011880  0.46626336  0.71208122     1.10100
Cl380      Cl  0.47937726  0.99775276  0.66072054    -0.84400
C381        C  0.42113065  0.34945809  0.67892782     0.97900
C382        C  0.36682828  0.44498662  0.61746543     0.97700
C383        C  0.17509948  0.34023831  0.83454514     0.31500
C384        C  0.16970989  0.33745193  0.93216422     0.31500
C385        C  0.14853780  0.35196027  0.85479186    -0.04700
C386        C  0.16221852  0.30144998  0.85609656    -0.05500
C387        C  0.21062014  0.36482615  0.86468227    -0.05300
C388        C  0.14594819  0.35103745  0.90430166    -0.04700
C389        C  0.15957076  0.30017767  0.90611288    -0.05500
C390        C  0.20735817  0.36328463  0.91400217    -0.05300
C391        C  0.12317837  0.36548440  0.91450294    -0.30700
N392        N  0.11160775  0.37412117  0.87284790     0.15800
C393        C  0.12666014  0.36579387  0.83631687    -0.30700
H394        H  0.12345131  0.37135486  0.79937108     0.17700
C395        C  0.13303756  0.26461602  0.91560357    -0.29700
N396        N  0.12059114  0.24410013  0.87464987     0.14500
C397        C  0.13744736  0.26622654  0.83806450    -0.29700
C398        C  0.24133541  0.38481525  0.93505283    -0.30000
N399        N  0.26556994  0.39893995  0.90061617     0.15000
H400        H  0.24830051  0.38844428  0.97280583     0.17600
C401        C  0.24730189  0.38704768  0.85738926    -0.30000
H402        H  0.25974120  0.39318253  0.82341735     0.17600
H403        H  0.12897175  0.25876912  0.80106088     0.17600
H404        H  0.11634315  0.37040219  0.94945462     0.17700
H405        H  0.12086867  0.25543795  0.94949717     0.17600
C406        C  0.17517130  0.33324576  0.58479863     0.31500
C407        C  0.17432104  0.33801926  0.68325915     0.31500
C408        C  0.15859334  0.35670273  0.60485287    -0.04700
C409        C  0.15354930  0.29552203  0.61081878    -0.05500
C410        C  0.21205876  0.35058528  0.61262123    -0.05300
C411        C  0.15775396  0.35874628  0.65460378    -0.04700
C412        C  0.15347393  0.29869616  0.66057662    -0.05500
C413        C  0.21156767  0.35277928  0.66222837    -0.05300
C414        C  0.13963114  0.37838745  0.66448852    -0.30700
N415        N  0.13017980  0.38874023  0.62263617     0.15800
C416        C  0.14191559  0.37613483  0.58624496    -0.30700
H417        H  0.13723847  0.37955967  0.54899453     0.17700
C418        C  0.13389217  0.26356505  0.67797817    -0.29700
N419        N  0.12163370  0.23835021  0.64110073     0.14500
C420        C  0.13358439  0.25738478  0.60001907    -0.29700
C421        C  0.24651512  0.37599825  0.67904637    -0.30000
N422        N  0.26801189  0.38796430  0.64152355     0.15000
H423        H  0.25537210  0.38552213  0.71554809     0.17600
C424        C  0.24736296  0.37279882  0.60080367    -0.30000
H425        H  0.25657185  0.37918128  0.56510369     0.17600
H426        H  0.12852650  0.24438567  0.56498771     0.17600
H427        H  0.13336531  0.38433593  0.69928523     0.17700
H428        H  0.13001993  0.25700130  0.71507452     0.17600
C429        C  0.17647309  0.34126918  0.78086480    -0.11800
C430        C  0.17518329  0.34043490  0.73707241    -0.13300
C431        C  0.16887787  0.33401911  0.02983855    -0.11800
C432        C  0.16826834  0.33551571  0.98603337    -0.13300
C433        C  0.08647677  0.18101272  0.68546489    -0.14900
C434        C  0.10237933  0.19802962  0.64517535    -0.30100
H435        H  0.08506468  0.19717855  0.71514560     0.14100
H436        H  0.10154679  0.18098043  0.61491895     0.14700
C437        C  0.30603728  0.41394522  0.64621500    -0.14900
C438        C  0.32736070  0.42508353  0.60899345    -0.30100
H439        H  0.31798466  0.42284359  0.68207200     0.14100
H440        H  0.31641326  0.41626457  0.57292716     0.14700
C441        C  0.10978345  0.40853747  0.61675940    -0.14900
C442        C  0.07857044  0.39750873  0.63861991    -0.30100
H443        H  0.11830471  0.43068384  0.59102854     0.14100
H444        H  0.06845098  0.37321073  0.66107566     0.14700
C445        C  0.08987482  0.20724412  0.87217499    -0.14900
C446        C  0.08532207  0.18107854  0.83934565    -0.30100
H447        H  0.07216517  0.19928146  0.90191150     0.14100
H448        H  0.10347653  0.18800040  0.81024617     0.14700
C449        C  0.32836081  0.41905563  0.88209253    -0.14900
C450        C  0.30422890  0.41973952  0.91119395    -0.30100
H451        H  0.31926184  0.40476589  0.84766928     0.14100
H452        H  0.31360092  0.43233322  0.94660015     0.14700
C453        C  0.10328370  0.42737301  0.88840979    -0.14900
C454        C  0.09084572  0.39352612  0.86768538    -0.30100
H455        H  0.12866221  0.43940791  0.91000542     0.14100
H456        H  0.06735869  0.38253686  0.84260385     0.14700
C457        C  0.55840490  0.41731131  0.70627358    -0.17000
C458        C  0.54420532  0.39382349  0.73541745     0.07100
C459        C  0.37550845  0.00925877  0.83093696     0.08900
C460        C  0.40132695  0.03398827  0.85289886    -0.17800
C461        C  0.44216530  0.58860028  0.56863012    -0.17000
C462        C  0.43812176  0.60214290  0.60403223     0.07100
C463        C  0.46559451  0.11519946  0.59412014     0.08900
C464        C  0.44685190  0.08617895  0.61332431    -0.17800
C465        C  0.36444913  0.07602697  0.72742934    -0.14900
C466        C  0.39566298  0.08240361  0.75073469    -0.30100
H467        H  0.35234619  0.05374836  0.70036388     0.14100
H468        H  0.40970413  0.10678957  0.77450714     0.14700
C469        C  0.38536028  0.29320189  0.72637999    -0.14900
C470        C  0.40041699  0.30848002  0.68487913    -0.30100
H471        H  0.39081702  0.31126741  0.75751711     0.14100
H472        H  0.39680873  0.29086365  0.65403675     0.14700
C473        C  0.14853986  0.06397558  0.76908849    -0.14900
C474        C  0.17293129  0.07360736  0.73434161    -0.30100
H475        H  0.15721240  0.07698934  0.80427820     0.14100
H476        H  0.16266031  0.06074512  0.69926940     0.14700
C477        C  0.38710712  0.09780534  0.00380095    -0.14900
C478        C  0.41504978  0.10588938  0.97621696    -0.30100
H479        H  0.38081805  0.07737438  0.03153702     0.14100
H480        H  0.42328063  0.12876271  0.95164737     0.14700
C481        C  0.41006472  0.31706585  0.02480322    -0.14900
C482        C  0.40353852  0.28932748  0.99348423    -0.30100
H483        H  0.39292742  0.31162593  0.05477852     0.14100
H484        H  0.41161317  0.31437159  0.47535989     0.14700
C485        C  0.18205552  0.07298121  0.95238398    -0.14900
C486        C  0.15600001  0.07134094  0.97923199    -0.30100
H487        H  0.17476015  0.06096393  0.91649099     0.14100
H488        H  0.16320702  0.08512157  0.01405205     0.14700
C489        C  0.31650552  0.16073107  0.88339025    -0.11800
C490        C  0.31394060  0.15962141  0.83940839    -0.13300
C491        C  0.30310105  0.15766001  0.63269257    -0.11800
C492        C  0.30671512  0.16389254  0.58976124    -0.13300
C493        C  0.35491586  0.67680800  0.03379820     0.31500
C494        C  0.34449606  0.68110529  0.43461719     0.31500
C495        C  0.37371014  0.65699296  0.01028086    -0.04700
C496        C  0.31734278  0.65753639  0.00825434    -0.05500
C497        C  0.37269361  0.71551041  0.00954520    -0.05300
C498        C  0.37029099  0.66725247  0.45353991    -0.04700
C499        C  0.31013410  0.65676665  0.46148365    -0.05500
C500        C  0.35966595  0.71892227  0.46177326    -0.05300
C501        C  0.39125585  0.65480622  0.43264311    -0.30700
N502        N  0.40821306  0.64493399  0.46711791     0.15800
C503        C  0.39504273  0.64159893  0.02573839    -0.30700
H504        H  0.40241094  0.63910765  0.06231620     0.17700
C505        C  0.27388661  0.63383328  0.44988641    -0.29700
N506        N  0.25639308  0.62001205  0.49053231     0.14500
C507        C  0.28235048  0.64035795  0.02271100    -0.29700
C508        C  0.37490527  0.75537809  0.44825306    -0.30000
N509        N  0.40189985  0.77397190  0.98288104     0.15000
H510        H  0.37773175  0.76466903  0.41195900     0.17600
C511        C  0.39159618  0.75334771  0.02297093    -0.30000
H512        H  0.39841198  0.76480165  0.05892688     0.17600
H513        H  0.27425293  0.63633490  0.05903144     0.17600
H514        H  0.39428611  0.65345996  0.39504666     0.17700
H515        H  0.26100980  0.62762627  0.41446557     0.17600
C516        C  0.34198216  0.67406182  0.28243971     0.31500
C517        C  0.34545144  0.66869241  0.18447046     0.31500
C518        C  0.35993091  0.65104517  0.26451963    -0.04700
C519        C  0.30516382  0.65594054  0.25300555    -0.05500
C520        C  0.36340199  0.71108600  0.25653777    -0.05300
C521        C  0.36146753  0.64818826  0.21492636    -0.04700
C522        C  0.30693824  0.65323118  0.20350013    -0.05500
C523        C  0.36507728  0.70772040  0.20741378    -0.05300
C524        C  0.37802100  0.62662599  0.20679507    -0.30700
N525        N  0.38727870  0.61707284  0.24937559     0.15800
C526        C  0.37623973  0.63157723  0.28465057    -0.30700
H527        H  0.37871525  0.62700632  0.32195056     0.17700
C528        C  0.27174147  0.63840558  0.18414128    -0.29700
N529        N  0.24875540  0.63207999  0.21993705     0.14500
C530        C  0.26894758  0.64303241  0.26182176    -0.29700
C531        C  0.38068058  0.74263636  0.18946481    -0.30000
N532        N  0.38878354  0.76774671  0.22569248     0.15000
H533        H  0.38286095  0.74870960  0.15207369     0.17600
C534        C  0.37805617  0.74893486  0.26683635    -0.30000
H535        H  0.37889350  0.76166204  0.30095713     0.17600
H536        H  0.25807658  0.64218543  0.29621520     0.17600
H537        H  0.38294568  0.61841035  0.17248049     0.17700
H538        H  0.26374501  0.63376044  0.14671437     0.17600
N539        N  0.10289080  0.56044769  0.51557619    -0.04600
N540        N  0.13202442  0.57203982  0.54519345    -0.56700
N541        N  0.07847296  0.59725097  0.43066022    -0.04300
N542        N  0.08737392  0.62726179  0.40512239    -0.58800
N543        N  0.06423587  0.59925488  0.47009797    -0.03900
N544        N  0.06375776  0.63143253  0.47311485    -0.56700
N545        N  0.11027562  0.55178050  0.47402566    -0.03600
N546        N  0.14335355  0.55630027  0.47450181    -0.59200
C547        C  0.15711668  0.56909399  0.51874331     0.97600
C548        C  0.07800857  0.64832716  0.43211053     0.97400
N549        N  0.45915652  0.00856338  0.39475594    -0.04800
N550        N  0.42966996  0.01361988  0.39629806    -0.57300
N551        N  0.01588539  0.96714758  0.33222307    -0.02900
N552        N  0.04135659  0.96002801  0.31659557    -0.58500
N553        N  0.98979815  0.93667393  0.35032696    -0.04800
N554        N  0.99766211  0.90879166  0.34752009    -0.57600
N555        N  0.04925927  0.55073386  0.34890350    -0.02500
N556        N  0.07899901  0.57129910  0.32566438    -0.58600
Mn557      Mn  0.07751737  0.54627931  0.41026684     1.18400
C558        C  0.56684099  0.45422661  0.32432792     0.99700
C559        C  0.02974951  0.92368601  0.32605955     1.00300
N560        N  0.48594299  0.57352437  0.43723425    -0.04800
N561        N  0.48141530  0.60248045  0.42610523    -0.61100
N562        N  0.50618613  0.02937992  0.02691437    -0.03600
N563        N  0.50251333  0.05013702  0.05948307    -0.61800
N564        N  0.03895266  0.49850241  0.98831706    -0.04300
N565        N  0.06031119  0.48340895  0.99911340    -0.61400
N566        N  0.45483092  0.54220377  0.43187913    -0.03200
N567        N  0.42861388  0.54934568  0.41682413    -0.62100
Mn568      Mn  0.04663757  0.55371597  0.52141142     1.10700
C569        C  0.44558252  0.58702035  0.41315989     1.00900
C570        C  0.53241594  0.08387921  0.06164748     1.01000
N571        N  0.45748163  0.92968271  0.44880676    -0.04300
N572        N  0.44901378  0.89419293  0.45291282    -0.59700
N573        N  0.39720045  0.95929409  0.44907889    -0.03700
N574        N  0.36391929  0.95201057  0.45954280    -0.56500
N575        N  0.39570312  0.94005241  0.41059338    -0.05000
N576        N  0.36143984  0.91938521  0.39421834    -0.59300
N577        N  0.45386243  0.94352895  0.48921111    -0.04000
N578        N  0.44012529  0.91598043  0.52015968    -0.56500
Mn579      Mn  0.44745070  0.94849049  0.38015374     1.20200
Mn580      Mn  0.45182461  0.99765761  0.48665838     1.10100
Cl581      Cl  0.51192581  0.50950415  0.43971523    -0.84400
C582        C  0.43859020  0.88564895  0.49762204     0.97900
C583        C  0.34183990  0.92719952  0.42496674     0.97700
N584        N  0.09554682  0.57121349  0.19184485    -0.04600
N585        N  0.13007457  0.59139636  0.20690456    -0.56700
N586        N  0.03514497  0.56894425  0.11843869    -0.04300
N587        N  0.04727145  0.59636831  0.08725012    -0.58400
N588        N  0.03338901  0.58260749  0.16003041    -0.03900
N589        N  0.04163904  0.61812637  0.15675264    -0.56700
N590        N  0.09275293  0.55236560  0.15241850    -0.03600
N591        N  0.12557372  0.55942819  0.13999647    -0.59200
C592        C  0.14858560  0.58385186  0.17428107     0.97600
C593        C  0.04969986  0.62660649  0.11117583     0.97400
N594        N  0.45317103  0.01431308  0.11877181    -0.04800
N595        N  0.43111136  0.02875152  0.10892149    -0.57300
N596        N  0.02404384  0.97383333  0.10336618    -0.02900
N597        N  0.05050278  0.96478433  0.10220349    -0.58500
N598        N  0.99309983  0.94572292  0.08652062    -0.04800
N599        N  0.99836078  0.91742451  0.07364359    -0.57600
N600        N  0.98364608  0.47911644  0.07890230    -0.02500
N601        N  0.98575576  0.45960475  0.04346164    -0.58600
Mn602      Mn  0.03688124  0.51500957  0.11737288     1.18400
C603        C  0.55632332  0.55569960  0.05317235     0.99700
C604        C  0.03409368  0.92963725  0.08321357     1.00300
N605        N  0.48068505  0.55053434  0.29404080    -0.04800
N606        N  0.47833401  0.58121588  0.30407525    -0.61100
N607        N  0.44765285  0.95889716  0.25640524    -0.03600
N608        N  0.41768598  0.93699884  0.27853129    -0.61800
N609        N  0.03378398  0.50265993  0.21018737    -0.04300
N610        N  0.06310293  0.49768232  0.20584261    -0.61400
N611        N  0.44774861  0.52310663  0.28140375    -0.03200
N612        N  0.42340603  0.53491356  0.28182142    -0.62100
Mn613      Mn  0.04583315  0.56252103  0.22691720     1.10700
C614        C  0.44256683  0.57106666  0.29633819     1.00900
C615        C  0.41313071  0.96076012  0.30635365     1.01000
N616        N  0.42942443  0.90867423  0.13152429    -0.04300
N617        N  0.43123519  0.87738338  0.12666953    -0.59700
N618        N  0.38141796  0.95520925  0.13379373    -0.03700
N619        N  0.34784413  0.94907066  0.13623990    -0.56500
N620        N  0.38752735  0.94807163  0.09069906    -0.05000
N621        N  0.35782310  0.93716400  0.06254367    -0.59300
N622        N  0.41777639  0.91076833  0.17303628    -0.04000
N623        N  0.41124514  0.88109645  0.19795919    -0.56500
Mn624      Mn  0.44761891  0.96037585  0.08530028     1.20200
Mn625      Mn  0.41733640  0.96146455  0.19576139     1.10100
Cl626      Cl  0.50118750  0.51234463  0.20330423    -0.84400
C627        C  0.41978788  0.86064003  0.16852526     0.97900
C628        C  0.33326367  0.93808194  0.09181684     0.97700
C629        C  0.14653386  0.83728671  0.31822249     0.31500
C630        C  0.14578032  0.84008851  0.41662608     0.31500
C631        C  0.12442930  0.85492965  0.33946654    -0.04700
C632        C  0.13065149  0.79919393  0.34358309    -0.05500
C633        C  0.18435670  0.85963312  0.34566271    -0.05300
C634        C  0.12400182  0.85603455  0.38921654    -0.04700
C635        C  0.13052306  0.80159222  0.39304808    -0.05500
C636        C  0.18364441  0.86099112  0.39555450    -0.05300
C637        C  0.09938111  0.86779693  0.40059302    -0.30700
N638        N  0.08521185  0.87460106  0.35986472     0.15800
C639        C  0.10017394  0.86673299  0.32232024    -0.30700
H640        H  0.09266564  0.86767258  0.28533630     0.17700
C641        C  0.11851269  0.76682119  0.41059415    -0.29700
N642        N  0.11069215  0.74220612  0.37393476     0.14500
C643        C  0.11843999  0.76153319  0.33267183    -0.29700
C644        C  0.21898172  0.87452604  0.41380876    -0.30000
N645        N  0.24150000  0.88169609  0.37731253     0.15000
H646        H  0.22712481  0.87626542  0.45105304     0.17600
C647        C  0.22055041  0.87191613  0.33583826    -0.30000
H648        H  0.23063037  0.87194996  0.30111713     0.17600
H649        H  0.11627476  0.74932256  0.29773997     0.17600
H650        H  0.09154156  0.87024728  0.43597417     0.17700
H651        H  0.11761466  0.76049502  0.44790255     0.17600
C652        C  0.13824743  0.83093771  0.06635917     0.31500
C653        C  0.14128039  0.83359133  0.16527354     0.31500
C654        C  0.11661925  0.84792925  0.08999512    -0.04700
C655        C  0.12360956  0.79242195  0.09110189    -0.05500
C656        C  0.17600216  0.85359847  0.09144148    -0.05300
C657        C  0.11826973  0.84928667  0.13997797    -0.04700
C658        C  0.12543180  0.79450454  0.14115227    -0.05500
C659        C  0.17756925  0.85503556  0.14115467    -0.05300
C660        C  0.10182580  0.86985898  0.15355714    -0.30700
N661        N  0.08974218  0.88045265  0.11400519     0.15800
C662        C  0.09861867  0.86727225  0.07503143    -0.30700
H663        H  0.09452667  0.87343754  0.03865257     0.17700
C664        C  0.10867057  0.75862055  0.15707746    -0.29700
N665        N  0.09649552  0.73410498  0.11939036     0.14500
C666        C  0.10542058  0.75421166  0.07867426    -0.29700
C667        C  0.21330815  0.87804685  0.15561553    -0.30000
N668        N  0.23328659  0.89009501  0.11649285     0.15000
H669        H  0.22410104  0.88561936  0.19194697     0.17600
C670        C  0.21084318  0.87548064  0.07708008    -0.30000
H671        H  0.21900484  0.88088068  0.04082175     0.17600
H672        H  0.09754254  0.74218122  0.04304205     0.17600
H673        H  0.10026146  0.87806530  0.18956918     0.17700
H674        H  0.10419720  0.75079235  0.19385790     0.17600
C675        C  0.14567554  0.83582483  0.26385285    -0.11800
C676        C  0.14364387  0.83497136  0.21973474    -0.13300
C677        C  0.14143397  0.83287211  0.51336827    -0.11800
C678        C  0.14384772  0.83799537  0.47026559    -0.13300
C679        C  0.06910917  0.66641107  0.09537390    -0.14900
C680        C  0.07400355  0.69426854  0.12608531    -0.30100
H681        H  0.08093143  0.67283619  0.06089763     0.14100
H682        H  0.06236967  0.68638388  0.16064025     0.14700
C683        C  0.27190815  0.91438972  0.11874254    -0.14900
C684        C  0.29341846  0.91822826  0.08256651    -0.30100
H685        H  0.28423760  0.92782600  0.15302377     0.14100
H686        H  0.28207928  0.90439478  0.04830064     0.14700
C687        C  0.07464862  0.90573199  0.11467840    -0.14900
C688        C  0.05098836  0.90507652  0.08040636    -0.30100
H689        H  0.08107854  0.92442044  0.14544075     0.14100
H690        H  0.04147971  0.88396660  0.05195161     0.14700
C691        C  0.09949134  0.70304116  0.37975426    -0.14900
C692        C  0.08429848  0.68591350  0.42010542    -0.30100
H693        H  0.10486889  0.68787737  0.35220096     0.14100
H694        H  0.07704487  0.70029364  0.44647574     0.14700
C695        C  0.30157123  0.91257806  0.42055385    -0.14900
C696        C  0.28049544  0.89441099  0.38124149    -0.30100
H697        H  0.28926588  0.91847054  0.45019933     0.14100
H698        H  0.29338887  0.89051278  0.35068159     0.14700
C699        C  0.05362206  0.90620214  0.32300685    -0.14900
C700        C  0.05747940  0.88620947  0.35863017    -0.30100
H701        H  0.07179891  0.91402521  0.29387040     0.14100
H702        H  0.04163279  0.88177530  0.38982329     0.14700
C703        C  0.37919959  0.96188997  0.30575236    -0.17000
C704        C  0.36691320  0.98308143  0.31066825     0.07100
C705        C  0.58357615  0.41796185  0.26863400     0.08900
C706        C  0.58490303  0.43602015  0.30299739    -0.17800
C707        C  0.52633601  0.11594189  0.06409400    -0.17000
C708        C  0.50654782  0.12947171  0.06933268     0.07100
C709        C  0.61173856  0.54358497  0.05424361     0.08900
C710        C  0.59136776  0.55687290  0.05373995    -0.17800
C711        C  0.40266815  0.59228116  0.25537376    -0.14900
C712        C  0.42845795  0.59802869  0.28971881    -0.30100
H713        H  0.39384456  0.56889091  0.23016488     0.14100
H714        H  0.43998876  0.62328903  0.31206231     0.14700
C715        C  0.40074850  0.80684049  0.21987747    -0.14900
C716        C  0.41462969  0.82348915  0.17905552    -0.30100
H717        H  0.39629647  0.82230516  0.24799083     0.14100
H718        H  0.42077118  0.80906483  0.15148242     0.14700
C719        C  0.18873199  0.59857938  0.17718597    -0.14900
C720        C  0.20973783  0.61813649  0.21570677    -0.30100
H721        H  0.20089218  0.59226265  0.14772327     0.14100
H722        H  0.19674696  0.62256708  0.24579944     0.14700
C723        C  0.43088148  0.62834684  0.45869064    -0.14900
C724        C  0.42543287  0.60743425  0.41911474    -0.30100
H725        H  0.45111225  0.63094251  0.48606019     0.14100
H726        H  0.40279717  0.60132187  0.39394899     0.14700
C727        C  0.41725523  0.84571952  0.51233545    -0.14900
C728        C  0.41354173  0.81801534  0.48221974    -0.30100
H729        H  0.40291458  0.83902339  0.54502120     0.14100
H730        H  0.43706718  0.82275168  0.94414197     0.14700
C731        C  0.21831409  0.59389090  0.49097690    -0.14900
C732        C  0.19713883  0.59081992  0.52741461    -0.30100
H733        H  0.20583566  0.57855157  0.45774751     0.14100
H734        H  0.20871394  0.60689176  0.56034612     0.14700
C735        C  0.34102358  0.68025474  0.38023989    -0.11800
C736        C  0.34063026  0.67762308  0.33630943    -0.13300
C737        C  0.34914286  0.66969024  0.13082393    -0.11800
C738        C  0.35334981  0.67434668  0.08768885    -0.13300
C739        C  0.35353644  0.67944399  0.53300572     0.31500
C740        C  0.35285087  0.67476007  0.93469413     0.31500
C741        C  0.37501406  0.66590783  0.50280210    -0.04700
C742        C  0.31465617  0.65619828  0.51105990    -0.05500
C743        C  0.36465838  0.71892003  0.51177685    -0.05300
C744        C  0.37296660  0.65630942  0.96039815    -0.04700
C745        C  0.31595059  0.65625885  0.95842549    -0.05500
C746        C  0.37156483  0.71395896  0.95937430    -0.05300
C747        C  0.39447034  0.64122850  0.94716220    -0.30700
N748        N  0.40748641  0.63217361  0.98704557     0.15800
C749        C  0.39899270  0.65190164  0.51024155    -0.30700
H750        H  0.40844798  0.64650427  0.54416639     0.17700
C751        C  0.27963790  0.63795266  0.94410964    -0.29700
N752        N  0.25959701  0.62859444  0.98341626     0.14500
C753        C  0.28087798  0.63334271  0.52811907    -0.29700
C754        C  0.38987776  0.75010743  0.94444896    -0.30000
N755        N  0.38924828  0.77837239  0.48721718     0.15000
H756        H  0.39475115  0.75855769  0.90792683     0.17600
C757        C  0.38337889  0.75669742  0.52636884    -0.30000
H758        H  0.39447594  0.76744036  0.56186780     0.17600
H759        H  0.27470987  0.62627181  0.56470781     0.17600
H760        H  0.40088505  0.63781350  0.91131513     0.17700
H761        H  0.26849189  0.63173220  0.90781810     0.17600
C762        C  0.35170312  0.66741056  0.78166776     0.31500
C763        C  0.35312929  0.66379187  0.68322140     0.31500
C764        C  0.37045414  0.64543688  0.76150772    -0.04700
C765        C  0.31400660  0.64859456  0.75345645    -0.05500
C766        C  0.37159761  0.70534393  0.75625962    -0.05300
C767        C  0.37085930  0.64331910  0.71164631    -0.04700
C768        C  0.31485413  0.64692641  0.70378534    -0.05500
C769        C  0.37241603  0.70274145  0.70693190    -0.05300
C770        C  0.38691083  0.62121379  0.70170750    -0.30700
N771        N  0.39741235  0.61084740  0.74314890     0.15800
C772        C  0.38729491  0.62537815  0.77973534    -0.30700
H773        H  0.39058246  0.62049227  0.81689314     0.17700
C774        C  0.27921934  0.63294635  0.68549201    -0.29700
N775        N  0.25661418  0.62598427  0.72200413     0.14500
C776        C  0.27774021  0.63578796  0.76336584    -0.29700
C777        C  0.38470011  0.73782457  0.68923690    -0.30000
N778        N  0.39138601  0.76248094  0.72557081     0.15000
H779        H  0.38525224  0.74401850  0.65192562     0.17600
C780        C  0.38288266  0.74294372  0.76667582    -0.30000
H781        H  0.38272198  0.75471368  0.80108051     0.17600
H782        H  0.26760231  0.63480511  0.79828909     0.17600
H783        H  0.38999959  0.61267041  0.66661980     0.17700
H784        H  0.27078426  0.62980400  0.64826646     0.17600
N785        N  0.10545450  0.56593088  0.01519424    -0.04600
N786        N  0.13596036  0.58055751  0.04247655    -0.56700
N787        N  0.07658096  0.60146837  0.92976203    -0.04300
N788        N  0.08129116  0.62944217  0.90240119    -0.58800
N789        N  0.06344728  0.60390951  0.97000644    -0.03900
N790        N  0.05885822  0.63373992  0.97153592    -0.56700
N791        N  0.11125182  0.55630947  0.97325610    -0.03600
N792        N  0.14519782  0.56386380  0.97096192    -0.59200
C793        C  0.16056215  0.57892428  0.01387895     0.97600
C794        C  0.07014093  0.64922284  0.92902077     0.97400
N795        N  0.45749954  0.00164770  0.89559976    -0.04800
N796        N  0.42718229  0.00492079  0.89914772    -0.57300
N797        N  0.02484424  0.96866244  0.85402052    -0.02900
N798        N  0.05214434  0.96141123  0.84906853    -0.58500
N799        N  0.99596024  0.93840435  0.86747849    -0.04800
N800        N  0.00332533  0.91040853  0.87193737    -0.57600
N801        N  0.04961043  0.55334502  0.84673560    -0.02500
N802        N  0.08028522  0.57337574  0.82495607    -0.58600
Mn803      Mn  0.07693283  0.55015861  0.90964655     1.18400
C804        C  0.48656883  0.43020906  0.77886691     0.99700
C805        C  0.03816978  0.92497884  0.86005177     1.00300
N806        N  0.49356774  0.56135259  0.99573426    -0.04800
N807        N  0.48641116  0.58958493  0.99892352    -0.61100
N808        N  0.50299314  0.03526658  0.52816556    -0.03600
N809        N  0.49793988  0.05575193  0.55972967    -0.61800
N810        N  0.03806721  0.50115266  0.48293675    -0.04300
N811        N  0.05961322  0.48606167  0.49532501    -0.61400
N812        N  0.46621690  0.53092266  0.01203322    -0.03200
N813        N  0.44025192  0.53774213  0.02591851    -0.62100
Mn814      Mn  0.04544004  0.55374612  0.01861194     1.10700
C815        C  0.45337571  0.57447598  0.01801885     1.00900
C816        C  0.52813546  0.08919369  0.56384544     1.01000
N817        N  0.46191255  0.92489981  0.94680875    -0.04300
N818        N  0.45573015  0.89008134  0.95014434    -0.59700
N819        N  0.39902193  0.95048214  0.95257270    -0.03700
N820        N  0.36585006  0.94285334  0.96384861    -0.56500
N821        N  0.39722210  0.93194043  0.91328054    -0.05000
N822        N  0.36297231  0.91147314  0.89712613    -0.59300
N823        N  0.45853710  0.93780609  0.98807306    -0.04000
N824        N  0.44690549  0.91014332  0.01894201    -0.56500
Mn825      Mn  0.44796047  0.94261839  0.87950194     1.20200
Mn826      Mn  0.45397452  0.99030554  0.98803545     1.10100
Cl827      Cl  0.50611219  0.50097471  0.93122057    -0.84400
C828        C  0.44685433  0.88091333  0.99525367     0.97900
C829        C  0.34366163  0.91849293  0.92907518     0.97700
N830        N  0.10142512  0.57024443  0.69354833    -0.04600
N831        N  0.13604571  0.58976382  0.70937591    -0.56700
N832        N  0.04026080  0.56796197  0.61768104    -0.04300
N833        N  0.05031231  0.59484748  0.58581548    -0.58400
N834        N  0.03872499  0.58176899  0.65924581    -0.03900
N835        N  0.04543219  0.61680573  0.65561356    -0.56700
N836        N  0.09872207  0.55129524  0.65427463    -0.03600
N837        N  0.13159036  0.55764812  0.64281776    -0.59200
C838        C  0.15475865  0.58172478  0.67735552     0.97600
C839        C  0.05215552  0.62491145  0.60965231     0.97400
N840        N  0.45652136  0.00635866  0.62382616    -0.04800
N841        N  0.43399816  0.02081639  0.61451507    -0.57300
N842        N  0.03480423  0.97760152  0.60612492    -0.02900
N843        N  0.06049205  0.96745191  0.60764386    -0.58500
N844        N  0.00505948  0.95142310  0.58376902    -0.04800
N845        N  0.01007939  0.92313768  0.57042746    -0.57600
N846        N  0.99070107  0.47752388  0.57733903    -0.02500
N847        N  0.99414408  0.45591014  0.54583030    -0.58600
Mn848      Mn  0.04284325  0.51417986  0.61769418     1.18400
C849        C  0.48219767  0.55782779  0.65655609     0.99700
C850        C  0.04472642  0.93364238  0.58501252     1.00300
N851        N  0.50115553  0.54912970  0.75610379    -0.04800
N852        N  0.49744549  0.57910626  0.76648942    -0.61100
N853        N  0.45159001  0.95486555  0.75524489    -0.03600
N854        N  0.42220216  0.93251466  0.77807459    -0.61800
N855        N  0.03761825  0.50156030  0.71024865    -0.04300
N856        N  0.06692285  0.49633560  0.70782994    -0.61400
N857        N  0.46821839  0.51971754  0.75131373    -0.03200
N858        N  0.44249179  0.52942702  0.75728883    -0.62100
Mn859      Mn  0.05046463  0.56168799  0.72653230     1.10700
C860        C  0.46093167  0.56661489  0.76790407     1.00900
C861        C  0.41733527  0.95610953  0.80572693     1.01000
N862        N  0.43174994  0.90740884  0.63361693    -0.04300
N863        N  0.43251914  0.87544759  0.62840974    -0.59700
N864        N  0.38436264  0.95363740  0.63589690    -0.03700
N865        N  0.35108567  0.94860460  0.63686025    -0.56500
N866        N  0.39146871  0.94691270  0.59310736    -0.05000
N867        N  0.36247364  0.93690885  0.56378940    -0.59300
N868        N  0.41864803  0.90842819  0.67439890    -0.04000
N869        N  0.41080181  0.87789548  0.69857729    -0.56500
Mn870      Mn  0.44721434  0.95434362  0.58383141     1.20200
Mn871      Mn  0.41972849  0.95925398  0.69747073     1.10100
Cl872      Cl  0.51807404  0.50608220  0.66391812    -0.84400
C873        C  0.41951342  0.85744192  0.66934612     0.97900
C874        C  0.33744418  0.93823021  0.59189569     0.97700
C875        C  0.15151940  0.83580605  0.81760208     0.31500
C876        C  0.14801554  0.83897591  0.91571018     0.31500
C877        C  0.13605446  0.86029762  0.83709393    -0.04700
C878        C  0.12834892  0.79834228  0.84189486    -0.05500
C879        C  0.18824911  0.85149262  0.84693221    -0.05300
C880        C  0.13387920  0.86165251  0.88664603    -0.04700
C881        C  0.12675917  0.80067780  0.89119820    -0.05500
C882        C  0.18638183  0.85302671  0.89661751    -0.05300
C883        C  0.11692843  0.88258298  0.89562414    -0.30700
N884        N  0.10955239  0.89430906  0.85342444     0.15800
C885        C  0.12126652  0.88116539  0.81768353    -0.30700
H886        H  0.11789242  0.88529912  0.78030573     0.17700
C887        C  0.10975820  0.76537339  0.90769250    -0.29700
N888        N  0.10074662  0.74091634  0.87046061     0.14500
C889        C  0.11238754  0.76057053  0.83005522    -0.29700
C890        C  0.22142860  0.86707576  0.91592868    -0.30000
N891        N  0.24451656  0.87419735  0.88002584     0.15000
H892        H  0.22922160  0.87104215  0.95341885     0.17600
C893        C  0.22448135  0.86459498  0.83797704    -0.30000
H894        H  0.23550022  0.86682240  0.80337630     0.17600
H895        H  0.11140766  0.74840395  0.79547424     0.17600
H896        H  0.11001173  0.88846011  0.93003011     0.17700
H897        H  0.10746476  0.75837964  0.94482589     0.17600
C898        C  0.14156048  0.82996094  0.56698863     0.31500
C899        C  0.14595677  0.83137971  0.66556579     0.31500
C900        C  0.12218575  0.84850382  0.59224333    -0.04700
C901        C  0.12527945  0.79094869  0.59066470    -0.05500
C902        C  0.17991392  0.85058921  0.59107104    -0.05300
C903        C  0.12448931  0.84936939  0.64206141    -0.04700
C904        C  0.12770919  0.79234210  0.64071179    -0.05500
C905        C  0.18209454  0.85131753  0.64078879    -0.05300
C906        C  0.10930322  0.87082152  0.65697344    -0.30700
N907        N  0.09745759  0.88233191  0.61807706     0.15800
C908        C  0.10530066  0.86899144  0.57845860    -0.30700
H909        H  0.10096490  0.87546637  0.54232557     0.17700
C910        C  0.10977386  0.75619520  0.65579431    -0.29700
N911        N  0.09663269  0.73222636  0.61752058     0.14500
C912        C  0.10584851  0.75294759  0.57732137    -0.29700
C913        C  0.21785080  0.87459053  0.65479344    -0.30000
N914        N  0.23734592  0.88748601  0.61542178     0.15000
H915        H  0.22883260  0.88250042  0.69101057     0.17600
C916        C  0.21455121  0.87316645  0.57623923    -0.30000
H917        H  0.22220888  0.88000963  0.53998125     0.17600
H918        H  0.09757546  0.74150618  0.54145969     0.17600
H919        H  0.10806524  0.87860708  0.69327944     0.17700
H920        H  0.10554039  0.74784752  0.69241844     0.17600
C921        C  0.15144246  0.83391048  0.76362017    -0.11800
C922        C  0.14907366  0.83259536  0.71968838    -0.13300
C923        C  0.13972170  0.83299641  0.01245753    -0.11800
C924        C  0.14412436  0.83738603  0.96933049    -0.13300
C925        C  0.07068871  0.66471589  0.59353301    -0.14900
C926        C  0.07339508  0.69233352  0.62314454    -0.30100
H927        H  0.08419860  0.67151640  0.56019771     0.14100
H928        H  0.06012156  0.68416090  0.65666336     0.14700
C929        C  0.27560826  0.91343670  0.61744497    -0.14900
C930        C  0.29762950  0.91774650  0.58172397    -0.30100
H931        H  0.28744701  0.92745477  0.65159959     0.14100
H932        H  0.28676641  0.90333707  0.54762977     0.14700
C933        C  0.08258357  0.90766629  0.61928928    -0.14900
C934        C  0.06035338  0.90813400  0.58382515    -0.30100
H935        H  0.08852613  0.92579879  0.65051788     0.14100
H936        H  0.05144437  0.88762970  0.55473194     0.14700
C937        C  0.08808803  0.70162311  0.87541466    -0.14900
C938        C  0.07261457  0.68475233  0.91541296    -0.30100
H939        H  0.09460291  0.68674740  0.84870520     0.14100
H940        H  0.06446531  0.69880829  0.94114755     0.14700
C941        C  0.30368062  0.90412570  0.92486942    -0.14900
C942        C  0.28353006  0.88807325  0.88440510    -0.30100
H943        H  0.29097875  0.90813694  0.95543570     0.14100
H944        H  0.29714145  0.88623655  0.85333229     0.14700
C945        C  0.05989557  0.90598185  0.86903741    -0.14900
C946        C  0.09037763  0.91520768  0.84645886    -0.30100
H947        H  0.04960316  0.88247324  0.89280450     0.14100
H948        H  0.09883977  0.93623753  0.81922644     0.14700
C949        C  0.38253715  0.95526636  0.80698772    -0.17000
C950        C  0.36707609  0.97333741  0.81328747     0.07100
C951        C  0.51522826  0.38726916  0.76413894     0.08900
C952        C  0.49652860  0.40097683  0.77484143    -0.17800
C953        C  0.52282780  0.12154460  0.56847801    -0.17000
C954        C  0.50080844  0.13166108  0.57655608     0.07100
C955        C  0.45111073  0.59866724  0.64900160     0.08900
C956        C  0.46650850  0.58191823  0.66322235    -0.17800
C957        C  0.41143352  0.58413749  0.74657343    -0.14900
C958        C  0.44394140  0.59219141  0.76923915    -0.30100
H959        H  0.39698230  0.55804697  0.72588679     0.14100
H960        H  0.46007608  0.61974509  0.78606859     0.14700
C961        C  0.40054209  0.80136189  0.71995266    -0.14900
C962        C  0.41384126  0.81938336  0.67918502    -0.30100
H963        H  0.39562921  0.81591416  0.74874133     0.14100
H964        H  0.42042423  0.80570422  0.65115078     0.14700
C965        C  0.19530693  0.59591521  0.67996633    -0.14900
C966        C  0.21742569  0.61328109  0.71902480    -0.30100
H967        H  0.20688998  0.59048184  0.64917572     0.14100
H968        H  0.20509276  0.61674032  0.75045079     0.14700
C969        C  0.43221188  0.61715349  0.98745402    -0.14900
C970        C  0.43071697  0.59279519  0.02024112    -0.30100
H971        H  0.45039083  0.62349056  0.95841536     0.14100
H972        H  0.40992542  0.58334701  0.04628774     0.14700
C973        C  0.42788838  0.84078097  0.00950490    -0.14900
C974        C  0.42443011  0.81393611  0.97797487    -0.30100
H975        H  0.41491162  0.83321856  0.04317298     0.14100
H976        H  0.42714511  0.82597953  0.44890955     0.14700
C977        C  0.22066226  0.60759196  0.98188968    -0.14900
C978        C  0.20043643  0.60175010  0.02024646    -0.30100
H979        H  0.20731994  0.59608539  0.94730352     0.14100
H980        H  0.21266506  0.61411321  0.05488673     0.14700
C981        C  0.35175765  0.67267997  0.88010303    -0.11800
C982        C  0.35130576  0.67014732  0.83602196    -0.13300
C983        C  0.35470843  0.66670790  0.62921865    -0.11800
C984        C  0.35596189  0.67407843  0.58642834    -0.13300
C985        C  0.81339993  0.16533448  0.03313942     0.31500
C986        C  0.81980961  0.15651889  0.43492597     0.31500
C987        C  0.83155791  0.14320723  0.01375028    -0.04700
C988        C  0.77642531  0.14610661  0.00503479    -0.05500
C989        C  0.83400695  0.20337529  0.00653088    -0.05300
C990        C  0.83671244  0.13571897  0.46314856    -0.04700
C991        C  0.78285412  0.14187687  0.45678570    -0.05500
C992        C  0.84098604  0.19613018  0.45740670    -0.05300
C993        C  0.85458779  0.11567632  0.45318092    -0.30700
N994        N  0.86416949  0.10521773  0.49497263     0.15800
C995        C  0.84740334  0.12299928  0.03256094    -0.30700
H996        H  0.85139107  0.11889615  0.06977874     0.17700
C997        C  0.74769097  0.12723361  0.43898780    -0.29700
N998        N  0.72568779  0.12018928  0.47586697     0.14500
C999        C  0.74017838  0.12739679  0.01528204    -0.29700
C1000       C  0.85948273  0.23153955  0.43979334    -0.30000
N1001       N  0.86624644  0.26053878  0.97498816     0.15000
H1002       H  0.86257057  0.23812354  0.40261399     0.17600
C1003       C  0.85414534  0.24184701  0.01643464    -0.30000
H1004       H  0.85972254  0.25523934  0.05127619     0.17600
H1005       H  0.72920741  0.12372723  0.05012075     0.17600
H1006       H  0.86035340  0.10929567  0.41831081     0.17700
H1007       H  0.73906334  0.12318076  0.40173352     0.17600
C1008       C  0.80804010  0.15205250  0.28338645     0.31500
C1009       C  0.80473645  0.15548466  0.18476393     0.31500
C1010       C  0.82223262  0.12937050  0.25558937    -0.04700
C1011       C  0.76927311  0.13756438  0.25932270    -0.05500
C1012       C  0.82928559  0.19113222  0.26223825    -0.05300
C1013       C  0.82025533  0.13094922  0.20589615    -0.04700
C1014       C  0.76782830  0.13943844  0.20925679    -0.05500
C1015       C  0.82750677  0.19253021  0.21263103    -0.05300
C1016       C  0.83185656  0.10715242  0.18813614    -0.30700
N1017       N  0.84155980  0.09189872  0.22507956     0.15800
C1018       C  0.83582139  0.10522323  0.26642345    -0.30700
H1019       H  0.84031466  0.09722673  0.30164679     0.17700
C1020       C  0.73154061  0.11979119  0.19447003    -0.29700
N1021       N  0.71068722  0.10647903  0.23291096     0.14500
C1022       C  0.73339669  0.11699307  0.27275915    -0.29700
C1023       C  0.85148869  0.22836203  0.20070395    -0.30000
N1024       N  0.86766009  0.24895965  0.24106054     0.15000
H1025       H  0.85806733  0.23841411  0.16502234     0.17600
C1026       C  0.85441835  0.22668632  0.27904772    -0.30000
H1027       H  0.86401166  0.23500066  0.31558987     0.17600
H1028       H  0.72480220  0.10812285  0.30827875     0.17600
H1029       H  0.83309960  0.10123324  0.15105440     0.17700
H1030       H  0.72109788  0.11372233  0.15787063     0.17600
N1031       N  0.57884122  0.07574551  0.42803912    -0.04600
N1032       N  0.60989570  0.08657856  0.45278989    -0.56700
N1033       N  0.54375801  0.09924143  0.33966760    -0.04300
N1034       N  0.55933770  0.12746464  0.31040867    -0.58800
N1035       N  0.53831302  0.11146561  0.38003445    -0.03900
N1036       N  0.54909965  0.14746844  0.37879199    -0.56700
N1037       N  0.57802881  0.05851813  0.38845515    -0.03600
N1038       N  0.60897657  0.05775960  0.38462838    -0.59200
C1039       C  0.62837009  0.07500952  0.42518410     0.97600
C1040       C  0.56206945  0.15747133  0.33527617     0.97400
N1041       N  0.02923927  0.51760987  0.32859105    -0.04800
N1042       N  0.05081837  0.51355579  0.29968267    -0.57300
N1043       N  0.57065747  0.47882665  0.44411704    -0.02900
N1044       N  0.59841867  0.47260810  0.45234063    -0.58500
N1045       N  0.53966070  0.44709991  0.44426864    -0.04800
N1046       N  0.54615132  0.41889067  0.45240724    -0.57600
N1047       N  0.48468536  0.03757469  0.37368178    -0.02500
N1048       N  0.47101455  0.06022518  0.35945439    -0.58600
Mn1049     Mn  0.53223616  0.04004445  0.33548646     1.18400
C1050       C  0.93163402  0.02971389  0.39019479     0.99700
C1051       C  0.58289046  0.43518663  0.45732326     1.00300
N1052       N  0.97912122  0.06193780  0.47701696    -0.04800
N1053       N  0.97186473  0.09008570  0.47330788    -0.61100
N1054       N  0.00983179  0.47515218  0.96229630    -0.03600
N1055       N  0.01223231  0.44389625  0.95605824    -0.61800
N1056       N  0.53680446  0.05158680  0.00706305    -0.04300
N1057       N  0.55590946  0.08330670  0.03187581    -0.61400
N1058       N  0.95047167  0.03193870  0.49237374    -0.03200
N1059       N  0.92363504  0.03950699  0.49985122    -0.62100
Mn1060     Mn  0.53195182  0.08100207  0.44534475     1.10700
C1061       C  0.93749439  0.07598044  0.48797189     1.00900
C1062       C  0.04346045  0.44906384  0.97801854     1.01000
N1063       N  0.95443784  0.41164455  0.40276076    -0.04300
N1064       N  0.94499495  0.37615482  0.39251301    -0.59700
N1065       N  0.93165368  0.47848771  0.40694372    -0.03700
N1066       N  0.89770787  0.47213050  0.40341968    -0.56500
N1067       N  0.94197374  0.47291680  0.36563152    -0.05000
N1068       N  0.91358781  0.46019550  0.33421333    -0.59300
N1069       N  0.93851805  0.41329972  0.44126288    -0.04000
N1070       N  0.91778423  0.37941675  0.45741697    -0.56500
Mn1071     Mn  0.99199231  0.46605700  0.36658066     1.20200
Mn1072     Mn  0.95204976  0.46783493  0.47457725     1.10100
Cl1073     Cl  0.98668856  0.99762699  0.41506329    -0.84400
C1074       C  0.92221554  0.35641696  0.42704510     0.97900
C1075       C  0.88611926  0.46049909  0.35824672     0.97700
N1076       N  0.55174786  0.03976755  0.24174585    -0.04600
N1077       N  0.57974332  0.05096058  0.27358082    -0.56700
N1078       N  0.55303672  0.09863936  0.16592860    -0.04300
N1079       N  0.57381764  0.13253660  0.14993412    -0.58400
N1080       N  0.53703235  0.10009299  0.20443839    -0.03900
N1081       N  0.54656323  0.13563322  0.21485247    -0.56700
N1082       N  0.56202573  0.03479402  0.20012257    -0.03600
N1083       N  0.59572303  0.04041441  0.20355870    -0.59200
C1084       C  0.60712237  0.05075314  0.24914274     0.97600
C1085       C  0.56944980  0.15549982  0.18036194     0.97400
N1086       N  0.95312475  0.45677016  0.09887135    -0.04800
N1087       N  0.93296653  0.42621116  0.07247126    -0.57300
N1088       N  0.55539698  0.49670184  0.13897507    -0.02900
N1089       N  0.58353991  0.49056881  0.13858295    -0.58500
N1090       N  0.52498640  0.46588188  0.12579127    -0.04800
N1091       N  0.53276117  0.43875974  0.11431283    -0.57600
N1092       N  0.48277491  0.03832950  0.14350053    -0.02500
N1093       N  0.47974319  0.06921587  0.15003790    -0.58600
Mn1094     Mn  0.54057150  0.04472516  0.13240828     1.18400
C1095       C  0.93740587  0.03956103  0.13976766     0.99700
C1096       C  0.56976157  0.45493230  0.12229274     1.00300
N1097       N  0.94206659  0.03030788  0.23971561    -0.04800
N1098       N  0.93623268  0.05833120  0.25145690    -0.61100
N1099       N  0.00869744  0.47296980  0.23078290    -0.03600
N1100       N  0.02245407  0.44977568  0.24166515    -0.61800
N1101       N  0.46598063  0.99201046  0.27752307    -0.04300
N1102       N  0.44316859  0.99422789  0.30588701    -0.61400
N1103       N  0.91110492  0.00045249  0.22497794    -0.03200
N1104       N  0.88394480  0.00849096  0.22514400    -0.62100
Mn1105     Mn  0.50098480  0.04510071  0.24100595     1.10700
C1106       C  0.90008687  0.04454271  0.24181582     1.00900
C1107       C  0.05595230  0.46488991  0.22444887     1.01000
N1108       N  0.95449230  0.39880217  0.22379229    -0.04300
N1109       N  0.94362856  0.36271679  0.22303992    -0.59700
N1110       N  0.91498957  0.45245279  0.22424963    -0.03700
N1111       N  0.88455210  0.45389168  0.23048218    -0.56500
N1112       N  0.91279597  0.43607489  0.18342190    -0.05000
N1113       N  0.88150625  0.42671663  0.16013700    -0.59300
N1114       N  0.95101049  0.41019103  0.26589537    -0.04000
N1115       N  0.93704097  0.38138200  0.29458641    -0.56500
Mn1116     Mn  0.95856415  0.43115852  0.16083967     1.20200
Mn1117     Mn  0.96293623  0.46946806  0.27386889     1.10100
Cl1118     Cl  0.96924965  0.98432755  0.16604083    -0.84400
C1119       C  0.93285987  0.35182763  0.26728370     0.97900
C1120       C  0.86413310  0.43804303  0.18996003     0.97700
C1121       C  0.68461203  0.35846767  0.32476454     0.31500
C1122       C  0.68904145  0.35087852  0.42285918     0.31500
C1123       C  0.66902197  0.37825743  0.35592871    -0.04700
C1124       C  0.66526213  0.31821996  0.34353474    -0.05500
C1125       C  0.72388905  0.37377226  0.34828541    -0.05300
C1126       C  0.67185101  0.37402107  0.40491816    -0.04700
C1127       C  0.66757447  0.31477872  0.39298785    -0.05500
C1128       C  0.72572665  0.36986497  0.39811337    -0.05300
C1129       C  0.65623916  0.39168737  0.42729795    -0.30700
N1130       N  0.64293070  0.40632632  0.39421521     0.15800
C1131       C  0.65087541  0.39903167  0.35030056    -0.30700
H1132       H  0.64315173  0.40720692  0.31709401     0.17700
C1133       C  0.64339712  0.27865993  0.40320501    -0.29700
N1134       N  0.62681608  0.25972555  0.36204031     0.14500
C1135       C  0.63963726  0.28338841  0.32528498    -0.29700
C1136       C  0.76195964  0.38848228  0.41284684    -0.30000
N1137       N  0.78264390  0.40333945  0.37464997     0.15000
H1138       H  0.77255125  0.39238870  0.44935241     0.17600
C1139       C  0.75980736  0.39466305  0.33500528    -0.30000
H1140       H  0.76842283  0.40461249  0.29983357     0.17600
H1141       H  0.62876913  0.27666642  0.28901139     0.17600
H1142       H  0.65458341  0.39370102  0.46516931     0.17700
H1143       H  0.63648697  0.26748761  0.43835946     0.17600
C1144       C  0.67464327  0.35002027  0.07442289     0.31500
C1145       C  0.67213446  0.35642082  0.17277579     0.31500
C1146       C  0.65370629  0.37027655  0.09218902    -0.04700
C1147       C  0.65565160  0.31256401  0.10183009    -0.05500
C1148       C  0.71137289  0.37128139  0.10316587    -0.05300
C1149       C  0.65261647  0.37372253  0.14193911    -0.04700
C1150       C  0.65459333  0.31633668  0.15132572    -0.05500
C1151       C  0.70974832  0.37435208  0.15227245    -0.05300
C1152       C  0.63004364  0.38911735  0.14953650    -0.30700
N1153       N  0.61713868  0.39479908  0.10671028     0.15800
C1154       C  0.63115416  0.38308571  0.07176544    -0.30700
H1155       H  0.62473029  0.38308187  0.03416631     0.17700
C1156       C  0.63555394  0.28094748  0.16913193    -0.29700
N1157       N  0.62477570  0.25524136  0.13279645     0.14500
C1158       C  0.63706273  0.27418385  0.09170373    -0.29700
C1159       C  0.74471985  0.39139778  0.17161345    -0.30000
N1160       N  0.76788145  0.39889091  0.13603041     0.15000
H1161       H  0.75234051  0.39592693  0.20914183     0.17600
C1162       C  0.74787044  0.38657606  0.09417427    -0.30000
H1163       H  0.75900654  0.38736414  0.05999468     0.17600
H1164       H  0.63245967  0.26100679  0.05684952     0.17600
H1165       H  0.62223668  0.39412713  0.18378427     0.17700
H1166       H  0.63024023  0.27458649  0.20601333     0.17600
C1167       C  0.67951968  0.36062464  0.27093824    -0.11800
C1168       C  0.67417284  0.35949023  0.22712804    -0.13300
C1169       C  0.68142291  0.34464694  0.52001466    -0.11800
C1170       C  0.68698708  0.34672570  0.47689437    -0.13300
C1171       C  0.58733810  0.19708170  0.17586504    -0.14900
C1172       C  0.60528331  0.21467684  0.13676278    -0.30100
H1173       H  0.58546587  0.21325632  0.20518950     0.14100
H1174       H  0.60517696  0.19774293  0.10681527     0.14700
C1175       C  0.80662458  0.41280849  0.14162388    -0.14900
C1176       C  0.82570862  0.42878760  0.18263758    -0.30100
H1177       H  0.82046757  0.40911585  0.11199112     0.14100
H1178       H  0.81288346  0.43426222  0.21199249     0.14700
C1179       C  0.59157915  0.40918847  0.09896734    -0.14900
C1180       C  0.59181431  0.43523667  0.12874011    -0.30100
H1181       H  0.57396432  0.40095377  0.06681663     0.14100
H1182       H  0.61258046  0.44606529  0.15759142     0.14700
C1183       C  0.59632293  0.22274113  0.36130098    -0.14900
C1184       C  0.58857680  0.19697429  0.32634546    -0.30100
H1185       H  0.58141237  0.21444297  0.39361202     0.14100
H1186       H  0.60407298  0.20412705  0.29456708     0.14700
C1187       C  0.84602472  0.43697725  0.34550141    -0.14900
C1188       C  0.82169491  0.42812637  0.38006307    -0.30100
H1189       H  0.83686802  0.42551666  0.30967145     0.14100
H1190       H  0.83222745  0.43881575  0.41593213     0.14700
C1191       C  0.60166184  0.41479468  0.44319029    -0.14900
C1192       C  0.62313414  0.42545839  0.40580684    -0.30100
H1193       H  0.59610212  0.38939526  0.46179891     0.14100
H1194       H  0.62622585  0.44902061  0.38475049     0.14700
C1195       C  0.08642564  0.46425217  0.24912867    -0.17000
C1196       C  0.11412084  0.48675011  0.27031295     0.07100
C1197       C  0.87360053  0.00956559  0.34538414     0.08900
C1198       C  0.90129635  0.03152631  0.36700112    -0.17800
C1199       C  0.04121921  0.41682243  0.00136677    -0.17000
C1200       C  0.01748463  0.39041266  0.02029720     0.07100
C1201       C  0.94879071  0.09845792  0.10148951     0.08900
C1202       C  0.93144185  0.06900160  0.12053836    -0.17800
C1203       C  0.85547535  0.06589208  0.21989835    -0.14900
C1204       C  0.88116736  0.06644192  0.25054533    -0.30100
H1205       H  0.84790408  0.04840290  0.18776535     0.14100
H1206       H  0.89165383  0.08680063  0.27990161     0.14700
C1207       C  0.89695422  0.28673493  0.24014346    -0.14900
C1208       C  0.90696546  0.31206463  0.27631510    -0.30100
H1209       H  0.90958248  0.29570957  0.20633143     0.14100
H1210       H  0.89401376  0.30437174  0.31000826     0.14700
C1211       C  0.64724936  0.07367702  0.26218451    -0.14900
C1212       C  0.67169359  0.08119205  0.22800166    -0.30100
H1213       H  0.65631239  0.08613505  0.29760474     0.14100
H1214       H  0.66124270  0.06914696  0.19261506     0.14700
C1215       C  0.88357151  0.08423166  0.50071767    -0.14900
C1216       C  0.91592689  0.09581281  0.48154141    -0.30100
H1217       H  0.87313917  0.06047460  0.52409169     0.14100
H1218       H  0.92744175  0.12139145  0.46142155     0.14700
C1219       C  0.90561103  0.31506730  0.43227617    -0.14900
C1220       C  0.88980318  0.29750199  0.47247496    -0.30100
H1221       H  0.90689811  0.29898623  0.40241063     0.14100
H1222       H  0.88763664  0.31862055  0.99972876     0.14700
C1223       C  0.68688086  0.10578255  0.47190044    -0.14900
C1224       C  0.66715725  0.08635464  0.43288250    -0.30100
H1225       H  0.67359400  0.11113297  0.50092283     0.14100
H1226       H  0.67990397  0.07925494  0.40484912     0.14700
C1227       C  0.81705691  0.15352184  0.38091952    -0.11800
C1228       C  0.81216798  0.15165524  0.33722482    -0.13300
C1229       C  0.80610675  0.15957460  0.13061086    -0.11800
C1230       C  0.81021701  0.16422689  0.08723230    -0.13300
C1231       C  0.81989303  0.16141495  0.53347113     0.31500
C1232       C  0.81482800  0.16014431  0.93487977     0.31500
C1233       C  0.83629748  0.13791303  0.51292824    -0.04700
C1234       C  0.78254335  0.14422226  0.50622468    -0.05500
C1235       C  0.84139128  0.19934227  0.50726828    -0.05300
C1236       C  0.83251503  0.14098954  0.96406919    -0.04700
C1237       C  0.77756345  0.14373389  0.95570082    -0.05500
C1238       C  0.83421441  0.19981211  0.95678629    -0.05300
C1239       C  0.84948191  0.12040616  0.95427191    -0.30700
N1240       N  0.85847044  0.10976640  0.99610500     0.15800
C1241       C  0.85286800  0.11825607  0.53141391    -0.30700
H1242       H  0.85744338  0.11467018  0.56867320     0.17700
C1243       C  0.74270534  0.12390397  0.93735365    -0.29700
N1244       N  0.72003140  0.11394050  0.97380337     0.14500
C1245       C  0.74662867  0.13082022  0.51706809    -0.29700
C1246       C  0.85389762  0.23479908  0.93869706    -0.30000
N1247       N  0.87148880  0.25695737  0.47654938     0.15000
H1248       H  0.85832528  0.24086502  0.90153412     0.17600
C1249       C  0.86045323  0.23771613  0.51776931    -0.30000
H1250       H  0.86524867  0.25071872  0.55276031     0.17600
H1251       H  0.73647561  0.12917182  0.55212862     0.17600
H1252       H  0.85480505  0.11345158  0.91944072     0.17700
H1253       H  0.73469442  0.11792330  0.90002623     0.17600
C1254       C  0.81002013  0.15324024  0.78374834     0.31500
C1255       C  0.81179820  0.15378053  0.68546303     0.31500
C1256       C  0.83261512  0.13705016  0.76177165    -0.04700
C1257       C  0.77262398  0.13111135  0.75622614    -0.05500
C1258       C  0.82577046  0.19195677  0.76125554    -0.05300
C1259       C  0.83352303  0.13697598  0.71211476    -0.04700
C1260       C  0.77358747  0.13140900  0.70640211    -0.05500
C1261       C  0.82663346  0.19208650  0.71129487    -0.05300
C1262       C  0.85633931  0.12255123  0.70093049    -0.30700
N1263       N  0.86929260  0.11452413  0.74210736     0.15800
C1264       C  0.85518688  0.12359752  0.77919387    -0.30700
H1265       H  0.86090637  0.12050633  0.81624570     0.17700
C1266       C  0.73789023  0.11050667  0.68906014    -0.29700
N1267       N  0.71528971  0.09771843  0.72601410     0.14500
C1268       C  0.73626754  0.11018539  0.76726641    -0.29700
C1269       C  0.85365696  0.22696441  0.69990262    -0.30000
N1270       N  0.86830004  0.24820577  0.74010368     0.15000
H1271       H  0.86418528  0.23526919  0.66499873     0.17600
C1272       C  0.85215585  0.22707209  0.77784151    -0.30000
H1273       H  0.86160274  0.23514154  0.81448794     0.17600
H1274       H  0.72606454  0.10437216  0.80257219     0.17600
H1275       H  0.86357931  0.11894977  0.66564993     0.17700
H1276       H  0.72891736  0.10502076  0.65190345     0.17600
N1277       N  0.57680699  0.07213039  0.92261923    -0.04600
N1278       N  0.60728884  0.08116662  0.94752955    -0.56700
N1279       N  0.53844285  0.09527414  0.83863886    -0.04300
N1280       N  0.55496134  0.12443391  0.81094878    -0.58800
N1281       N  0.53352653  0.10668485  0.87998004    -0.03900
N1282       N  0.54566490  0.14305283  0.88080978    -0.56700
N1283       N  0.57558831  0.05551032  0.88241796    -0.03600
N1284       N  0.60591007  0.05360611  0.87806219    -0.59200
C1285       C  0.62507882  0.06931323  0.91926939     0.97600
C1286       C  0.55900571  0.15419647  0.83770393     0.97400
N1287       N  0.03005289  0.52000944  0.82657581    -0.04800
N1288       N  0.05225388  0.51560893  0.79916310    -0.57300
N1289       N  0.55213150  0.46908283  0.87542432    -0.02900
N1290       N  0.58089333  0.46416123  0.87291174    -0.58500
N1291       N  0.52377133  0.43808145  0.88969860    -0.04800
N1292       N  0.53316627  0.41183271  0.89752508    -0.57600
N1293       N  0.48183730  0.03172704  0.87485598    -0.02500
N1294       N  0.46640431  0.05323797  0.86265738    -0.58600
Mn1295     Mn  0.52858531  0.03641092  0.83221127     1.18400
C1296       C  0.93284703  0.02901184  0.87656313     0.99700
C1297       C  0.56859689  0.42848799  0.88677869     1.00300
N1298       N  0.96853662  0.06317231  0.96814771    -0.04800
N1299       N  0.96265717  0.09221705  0.96621346    -0.61100
N1300       N  0.00831650  0.47544598  0.46020918    -0.03600
N1301       N  0.01146332  0.44408024  0.45602654    -0.61800
N1302       N  0.53468667  0.05747651  0.51050362    -0.04300
N1303       N  0.55279432  0.08910414  0.53578779    -0.61400
N1304       N  0.93849851  0.03273866  0.97987943    -0.03200
N1305       N  0.91214138  0.04088160  0.98705290    -0.62100
Mn1306     Mn  0.53020657  0.07534442  0.94384715     1.10700
C1307       C  0.92768684  0.07795037  0.97828456     1.00900
C1308       C  0.04366052  0.45113822  0.47624675     1.01000
N1309       N  0.95522453  0.41391464  0.89985176    -0.04300
N1310       N  0.94514226  0.37817720  0.88984827    -0.59700
N1311       N  0.93284511  0.48170709  0.90412228    -0.03700
N1312       N  0.89896370  0.47553302  0.90116653    -0.56500
N1313       N  0.94237212  0.47493391  0.86282111    -0.05000
N1314       N  0.91340461  0.46127992  0.83229219    -0.59300
N1315       N  0.93873730  0.41592885  0.93746842    -0.04000
N1316       N  0.91692312  0.38224222  0.95314597    -0.56500
Mn1317     Mn  0.99248379  0.46822024  0.86385366     1.20200
Mn1318     Mn  0.95245416  0.46978946  0.97175607     1.10100
Cl1319     Cl  0.98529846  0.99918612  0.92128788    -0.84400
C1320       C  0.92139799  0.35882443  0.92377314     0.97900
C1321       C  0.88644077  0.46234226  0.85674443     0.97700
N1322       N  0.55569829  0.03315247  0.73548516    -0.04600
N1323       N  0.58412185  0.04350491  0.76639212    -0.56700
N1324       N  0.55691004  0.09405198  0.66225396    -0.04300
N1325       N  0.57766906  0.12800479  0.64646974    -0.58400
N1326       N  0.54231528  0.09539028  0.70213460    -0.03900
N1327       N  0.55279992  0.13095401  0.71372413    -0.56700
N1328       N  0.56542583  0.02937332  0.69291854    -0.03600
N1329       N  0.59920361  0.03511132  0.69466375    -0.59200
C1330       C  0.61110620  0.04399925  0.74033438     0.97600
C1331       C  0.57474340  0.15090038  0.67851593     0.97400
N1332       N  0.95922266  0.45647021  0.59600821    -0.04800
N1333       N  0.93955541  0.42493659  0.57101742    -0.57300
N1334       N  0.55902622  0.48756453  0.58951479    -0.02900
N1335       N  0.58469729  0.47760844  0.58553386    -0.58500
N1336       N  0.52625137  0.45747099  0.58388147    -0.04800
N1337       N  0.53004444  0.42746289  0.57487910    -0.57600
N1338       N  0.48689994  0.03227338  0.64506590    -0.02500
N1339       N  0.48341886  0.06327133  0.65133620    -0.58600
Mn1340     Mn  0.54268762  0.04032689  0.62725936     1.18400
C1341       C  0.95449580  0.05515865  0.63246108     0.99700
C1342       C  0.56652580  0.44027258  0.57625601     1.00300
N1343       N  0.95091623  0.03394829  0.73947050    -0.04800
N1344       N  0.94521139  0.06322852  0.74365790    -0.61100
N1345       N  0.01190708  0.47213577  0.73059895    -0.03600
N1346       N  0.02521270  0.44892694  0.74333881    -0.61800
N1347       N  0.46987598  0.98791224  0.77616657    -0.04300
N1348       N  0.44689715  0.99004732  0.80448432    -0.61400
N1349       N  0.92108150  0.00445341  0.72160635    -0.03200
N1350       N  0.89516654  0.01352971  0.71247035    -0.62100
Mn1351     Mn  0.50595065  0.04022648  0.73858538     1.10700
C1352       C  0.91010039  0.04978171  0.72682946     1.00900
C1353       C  0.05919245  0.46376893  0.72766964     1.01000
N1354       N  0.95677662  0.39779172  0.72207288    -0.04300
N1355       N  0.94521774  0.36152438  0.72166676    -0.59700
N1356       N  0.91869544  0.45312475  0.71889641    -0.03700
N1357       N  0.88906781  0.45654088  0.72279427    -0.56500
N1358       N  0.91701683  0.43645836  0.67850173    -0.05000
N1359       N  0.88694327  0.42890653  0.65317561    -0.59300
N1360       N  0.95239811  0.40935792  0.76354248    -0.04000
N1361       N  0.93724566  0.38063421  0.79214543    -0.56500
Mn1362     Mn  0.96290575  0.43056530  0.65879668     1.20200
Mn1363     Mn  0.96505253  0.46875316  0.77088574     1.10100
Cl1364     Cl  0.97981829  0.99013975  0.66929684    -0.84400
C1365       C  0.93334792  0.35088425  0.76559116     0.97900
C1366       C  0.86973589  0.44165097  0.68130378     0.97700
C1367       C  0.68817964  0.35209813  0.82352540     0.31500
C1368       C  0.68791940  0.35129375  0.92252244     0.31500
C1369       C  0.67108762  0.37313880  0.84738869    -0.04700
C1370       C  0.66820810  0.31328338  0.84585698    -0.05500
C1371       C  0.72606182  0.36954171  0.85001933    -0.05300
C1372       C  0.67048863  0.37243952  0.89699628    -0.04700
C1373       C  0.66815954  0.31300480  0.89576905    -0.05500
C1374       C  0.72614650  0.36945667  0.90024498    -0.05300
C1375       C  0.65212261  0.39106582  0.91005338    -0.30700
N1376       N  0.64239800  0.40328433  0.87000780     0.15800
C1377       C  0.65404912  0.39287036  0.83170141    -0.30700
H1378       H  0.64923557  0.39812506  0.79515268     0.17700
C1379       C  0.64300097  0.27742815  0.90769560    -0.29700
N1380       N  0.62820489  0.25607135  0.86737923     0.14500
C1381       C  0.64321030  0.27763087  0.82933305    -0.29700
C1382       C  0.76224907  0.39124788  0.91584134    -0.30000
N1383       N  0.78372634  0.40376572  0.87767312     0.15000
H1384       H  0.77205785  0.39890757  0.95249606     0.17600
C1385       C  0.76182316  0.39073365  0.83737347    -0.30000
H1386       H  0.77081074  0.39799353  0.80165289     0.17600
H1387       H  0.63447417  0.26902287  0.79263939     0.17600
H1388       H  0.64599158  0.39521395  0.94576070     0.17700
H1389       H  0.63422238  0.26833326  0.94312456     0.17600
C1390       C  0.67802583  0.34569584  0.57382606     0.31500
C1391       C  0.67844558  0.35123331  0.67213919     0.31500
C1392       C  0.65765315  0.36593698  0.59387469    -0.04700
C1393       C  0.65987029  0.30800467  0.60065571    -0.05500
C1394       C  0.71549399  0.36692745  0.60061242    -0.05300
C1395       C  0.65827177  0.36903557  0.64384855    -0.04700
C1396       C  0.66032318  0.31141784  0.65027794    -0.05500
C1397       C  0.71539363  0.36953584  0.64990287    -0.05300
C1398       C  0.64073222  0.38943623  0.65414424    -0.30700
N1399       N  0.62846862  0.39784850  0.61279259     0.15800
C1400       C  0.63854324  0.38359788  0.57597881    -0.30700
H1401       H  0.63331872  0.38693734  0.53899838     0.17700
C1402       C  0.64171370  0.27601260  0.66803744    -0.29700
N1403       N  0.62952760  0.25056330  0.63131650     0.14500
C1404       C  0.64061866  0.26971616  0.59011963    -0.29700
C1405       C  0.75087437  0.38877612  0.66704692    -0.30000
N1406       N  0.77286200  0.39809825  0.62979613     0.15000
H1407       H  0.75981994  0.39410573  0.70416560     0.17600
C1408       C  0.75159816  0.38471915  0.58906217    -0.30000
H1409       H  0.76170121  0.38708973  0.55383838     0.17600
H1410       H  0.63461047  0.25675848  0.55496724     0.17600
H1411       H  0.63752868  0.39799302  0.68922390     0.17700
H1412       H  0.63754006  0.26950514  0.70513116     0.17600
C1413       C  0.68557969  0.35285596  0.76965460    -0.11800
C1414       C  0.68124752  0.35309950  0.72608105    -0.13300
C1415       C  0.67886960  0.34871099  0.02033729    -0.11800
C1416       C  0.68436621  0.35001898  0.97696439    -0.13300
C1417       C  0.59300368  0.19247027  0.67473915    -0.14900
C1418       C  0.60955681  0.21004239  0.63490331    -0.30100
H1419       H  0.59260532  0.20861085  0.70513791     0.14100
H1420       H  0.60791275  0.19313411  0.60404397     0.14700
C1421       C  0.81195796  0.41463066  0.63313728    -0.14900
C1422       C  0.83147284  0.43257434  0.67307422    -0.30100
H1423       H  0.82551458  0.41034369  0.60359089     0.14100
H1424       H  0.81862329  0.43865681  0.70189575     0.14700
C1425       C  0.61193129  0.42207683  0.60944179    -0.14900
C1426       C  0.58374537  0.41544125  0.57838899    -0.30100
H1427       H  0.62136008  0.44539373  0.63488624     0.14100
H1428       H  0.57170192  0.39011355  0.55613412     0.14700
C1429       C  0.59812379  0.21852338  0.86763101    -0.14900
C1430       C  0.58731180  0.19358964  0.83072087    -0.30100
H1431       H  0.58485671  0.20952263  0.90103405     0.14100
H1432       H  0.60090270  0.20121278  0.79746705     0.14700
C1433       C  0.84628700  0.43739202  0.84647862    -0.14900
C1434       C  0.82257213  0.42984422  0.88173074    -0.30100
H1435       H  0.83669303  0.42371377  0.81176269     0.14100
H1436       H  0.83339966  0.44298088  0.91654606     0.14700
C1437       C  0.59149625  0.41063333  0.89205666    -0.14900
C1438       C  0.62139119  0.42235348  0.86732459    -0.30100
H1439       H  0.58285102  0.38640454  0.91444066     0.14100
H1440       H  0.62804741  0.44420649  0.84143925     0.14700
C1441       C  0.08899729  0.46377632  0.75496297    -0.17000
C1442       C  0.11590380  0.48678063  0.77707457     0.07100
C1443       C  0.87825856  0.00666085  0.82331525     0.08900
C1444       C  0.90452307  0.02958270  0.84653302    -0.17800
C1445       C  0.04496656  0.42026564  0.49916896    -0.17000
C1446       C  0.02422310  0.39210048  0.51850711     0.07100
C1447       C  0.98567857  0.11182976  0.58668726     0.08900
C1448       C  0.96047338  0.08789589  0.60686483    -0.17800
C1449       C  0.89360248  0.09872882  0.74746736    -0.14900
C1450       C  0.89143090  0.07222707  0.71711754    -0.30100
H1451       H  0.91061296  0.10486007  0.78000716     0.14100
H1452       H  0.87148922  0.06318049  0.68732808     0.14700
C1453       C  0.89918324  0.28511352  0.74030193    -0.14900
C1454       C  0.90702683  0.31132930  0.77473250    -0.30100
H1455       H  0.91436914  0.29307583  0.70819634     0.14100
H1456       H  0.89162553  0.30452920  0.80657849     0.14700
C1457       C  0.65130118  0.06558886  0.75348361    -0.14900
C1458       C  0.67598791  0.07429249  0.71928228    -0.30100
H1459       H  0.66029137  0.07580355  0.78979740     0.14100
H1460       H  0.66568599  0.06428085  0.68314541     0.14700
C1461       C  0.87784236  0.08900161  0.00081669    -0.14900
C1462       C  0.90824220  0.09961683  0.97742563    -0.30100
H1463       H  0.86818760  0.06535976  0.02437908     0.14100
H1464       H  0.91923678  0.12520864  0.95733574     0.14700
C1465       C  0.90368913  0.31748069  0.92993623    -0.14900
C1466       C  0.88657397  0.30095927  0.97006134    -0.30100
H1467       H  0.90483382  0.30059257  0.90093395     0.14100
H1468       H  0.89066993  0.31434130  0.50298160     0.14700
C1469       C  0.68109948  0.09599815  0.96906867    -0.14900
C1470       C  0.66306932  0.07881708  0.92819304    -0.30100
H1471       H  0.66644528  0.09892512  0.99827664     0.14100
H1472       H  0.67678279  0.07385857  0.89950714     0.14700
C1473       C  0.81362181  0.15660472  0.88122088    -0.11800
C1474       C  0.81098292  0.15408688  0.83751959    -0.13300
C1475       C  0.81436981  0.15655741  0.63127717    -0.11800
C1476       C  0.81782298  0.16058750  0.58772823    -0.13300
C1477       C  0.84538029  0.66350404  0.04259242     0.31500
C1478       C  0.83883615  0.65957991  0.44530239     0.31500
C1479       C  0.86316075  0.64253279  0.01892119    -0.04700
C1480       C  0.80873671  0.64809250  0.01307390    -0.05500
C1481       C  0.86720469  0.70360384  0.02224192    -0.05300
C1482       C  0.85461142  0.63627382  0.46977216    -0.04700
C1483       C  0.80226116  0.64659827  0.47005719    -0.05500
C1484       C  0.86253240  0.69843838  0.46933333    -0.05300
C1485       C  0.87102863  0.61564681  0.45544012    -0.30700
N1486       N  0.88421071  0.60552862  0.49449663     0.15800
C1487       C  0.87822213  0.62050718  0.03362691    -0.30700
H1488       H  0.88100170  0.61297052  0.06977390     0.17700
C1489       C  0.76686836  0.63805084  0.45639123    -0.29700
N1490       N  0.74730723  0.63435134  0.49555740     0.14500
C1491       C  0.77262566  0.63560167  0.02244724    -0.29700
C1492       C  0.88171322  0.73418747  0.45323596    -0.30000
N1493       N  0.89835255  0.76363310  0.00039085     0.15000
H1494       H  0.88486080  0.74194738  0.41633124     0.17600
C1495       C  0.88543840  0.74098565  0.03853168    -0.30000
H1496       H  0.88937886  0.75082148  0.07509797     0.17600
H1497       H  0.76170784  0.63218875  0.05728360     0.17600
H1498       H  0.87422851  0.60948496  0.41912378     0.17700
H1499       H  0.75614704  0.63518709  0.42007894     0.17600
C1500       C  0.84131010  0.65753935  0.29309479     0.31500
C1501       C  0.84012058  0.65275627  0.19428276     0.31500
C1502       C  0.86402300  0.64064804  0.27193587    -0.04700
C1503       C  0.80371603  0.63371842  0.26739943    -0.05500
C1504       C  0.85572865  0.69492765  0.26637174    -0.05300
C1505       C  0.86370954  0.63869170  0.22193495    -0.04700
C1506       C  0.80297833  0.63121968  0.21757630    -0.05500
C1507       C  0.85484181  0.69165023  0.21678849    -0.05300
C1508       C  0.88918912  0.62800247  0.21074088    -0.30700
N1509       N  0.90420718  0.62245741  0.25163550     0.15800
C1510       C  0.88921759  0.63022944  0.28915849    -0.30700
H1511       H  0.89722279  0.62998144  0.32612307     0.17700
C1512       C  0.76669402  0.61272030  0.20234972    -0.29700
N1513       N  0.74562331  0.60419431  0.24074178     0.14500
C1514       C  0.76800412  0.61695760  0.28063115    -0.29700
C1515       C  0.86865477  0.72651297  0.19863964    -0.30000
N1516       N  0.87846295  0.75177672  0.23505346     0.15000
H1517       H  0.87037993  0.73266303  0.16127290     0.17600
C1518       C  0.87038726  0.73296423  0.27665633    -0.30000
H1519       H  0.87483517  0.74597227  0.31158748     0.17600
H1520       H  0.75921147  0.61557476  0.31642402     0.17600
H1521       H  0.89677525  0.62509666  0.17537559     0.17700
H1522       H  0.75629850  0.60738803  0.16571797     0.17600
N1523       N  0.58888931  0.58013755  0.50202886    -0.04600
N1524       N  0.61804212  0.60607271  0.52770435    -0.56700
N1525       N  0.58015576  0.58544910  0.38518095    -0.04300
N1526       N  0.60128374  0.61231144  0.35579155    -0.58800
N1527       N  0.56183858  0.59807889  0.40870000    -0.03900
N1528       N  0.56771780  0.63105051  0.39485849    -0.56700
N1529       N  0.59921427  0.55887445  0.47944801    -0.03600
N1530       N  0.63307022  0.56756227  0.49086462    -0.59200
C1531       C  0.64547907  0.59720309  0.52057711     0.97600
C1532       C  0.59230073  0.64047459  0.36184004     0.97400
N1533       N  0.95311813  0.99099373  0.40147902    -0.04800
N1534       N  0.92414395  0.99635836  0.40716533    -0.57300
N1535       N  0.52549253  0.98267377  0.33654336    -0.02900
N1536       N  0.55199393  0.97528172  0.32599622    -0.58500
N1537       N  0.49838088  0.95274899  0.35397048    -0.04800
N1538       N  0.50644050  0.92487605  0.35571721    -0.57600
N1539       N  0.55483205  0.49571264  0.34950761    -0.02500
N1540       N  0.58140667  0.49122727  0.33200370    -0.58600
Mn1541     Mn  0.57541557  0.53020400  0.41350946     1.18400
C1542       C  0.08152856  0.54642313  0.29761352     0.99700
C1543       C  0.53994501  0.93927366  0.33804308     1.00300
N1544       N  0.99146839  0.54998568  0.52057153    -0.04800
N1545       N  0.98569603  0.57849478  0.53130281    -0.61100
N1546       N  0.98630776  0.01728290  0.03660363    -0.03600
N1547       N  0.97858919  0.03933309  0.06200502    -0.61800
N1548       N  0.54090588  0.50862246  0.96165267    -0.04300
N1549       N  0.57141682  0.50616414  0.96126554    -0.61400
N1550       N  0.96076153  0.52155556  0.50361256    -0.03200
N1551       N  0.93413443  0.53041357  0.50264056    -0.62100
Mn1552     Mn  0.53482225  0.57595148  0.47160485     1.10700
C1553       C  0.94988249  0.56590683  0.52010114     1.00900
C1554       C  0.00908228  0.07221265  0.06905655     1.01000
N1555       N  0.95270614  0.90975234  0.44896466    -0.04300
N1556       N  0.94547568  0.87449814  0.45184845    -0.59700
N1557       N  0.89396942  0.94082731  0.45838375    -0.03700
N1558       N  0.86165529  0.93625434  0.46942384    -0.56500
N1559       N  0.89056550  0.92237851  0.41830731    -0.05000
N1560       N  0.85605329  0.90472157  0.40192970    -0.59300
N1561       N  0.95248894  0.92348110  0.49117023    -0.04000
N1562       N  0.94301937  0.89654977  0.52288457    -0.56500
Mn1563     Mn  0.94036873  0.93102083  0.38282106     1.20200
Mn1564     Mn  0.95063555  0.97732945  0.49388387     1.10100
Cl1565     Cl  0.01649871  0.50953789  0.44405663    -0.84400
C1566       C  0.93999628  0.86634155  0.49806010     0.97900
C1567       C  0.83816309  0.91342713  0.43432589     0.97700
N1568       N  0.59049345  0.55905133  0.26771094    -0.04600
N1569       N  0.62063343  0.56808283  0.29464408    -0.56700
N1570       N  0.56037656  0.59965150  0.19257078    -0.04300
N1571       N  0.56718792  0.63011544  0.16936546    -0.58400
N1572       N  0.54971243  0.60067739  0.23511145    -0.03900
N1573       N  0.54974289  0.63286379  0.24251558    -0.56700
N1574       N  0.59620665  0.55425947  0.22346782    -0.03600
N1575       N  0.62961856  0.56001760  0.21901705    -0.59200
C1576       C  0.64477400  0.56831077  0.26347238     0.97600
C1577       C  0.56036118  0.65057071  0.20078244     0.97400
N1578       N  0.94558197  0.99140448  0.12974650    -0.04800
N1579       N  0.92184317  0.00455056  0.12111261    -0.57300
N1580       N  0.53376149  0.99130055  0.10150375    -0.02900
N1581       N  0.55992577  0.98179384  0.10418035    -0.58500
N1582       N  0.50381919  0.96361269  0.08168310    -0.04800
N1583       N  0.50907910  0.93494370  0.07152899    -0.57600
N1584       N  0.52519463  0.55432146  0.10942550    -0.02500
N1585       N  0.55212042  0.57792671  0.08406826    -0.58600
Mn1586     Mn  0.55892271  0.55030892  0.16536737     1.18400
C1587       C  0.95560951  0.42608323  0.04100909     0.99700
C1588       C  0.54408019  0.94676966  0.08485613     1.00300
N1589       N  0.99676791  0.55736228  0.25920510    -0.04800
N1590       N  0.98927005  0.58548097  0.26216839    -0.61100
N1591       N  0.93844848  0.94376167  0.26365359    -0.03600
N1592       N  0.90858914  0.92436810  0.28724925    -0.61800
N1593       N  0.52114566  0.49488579  0.24988483    -0.04300
N1594       N  0.54528313  0.48336810  0.24093414    -0.61400
N1595       N  0.97063319  0.52706715  0.27740013    -0.03200
N1596       N  0.94540125  0.53448478  0.29316061    -0.62100
Mn1597     Mn  0.53506875  0.55244232  0.28232868     1.10700
C1598       C  0.95726804  0.57084563  0.28376293     1.00900
C1599       C  0.90670466  0.95025710  0.31410263     1.01000
N1600       N  0.92386415  0.89472501  0.14043930    -0.04300
N1601       N  0.92577274  0.86330736  0.13656956    -0.59700
N1602       N  0.87394864  0.93726970  0.13923245    -0.03700
N1603       N  0.84081977  0.93254743  0.13937167    -0.56500
N1604       N  0.88168789  0.93101477  0.09662025    -0.05000
N1605       N  0.85318706  0.92155577  0.06645114    -0.59300
N1606       N  0.91088914  0.89625242  0.18116233    -0.04000
N1607       N  0.90435291  0.86677593  0.20664383    -0.56500
Mn1608     Mn  0.93805228  0.94017621  0.08899913     1.20200
Mn1609     Mn  0.90900802  0.94560970  0.20213673     1.10100
Cl1610     Cl  0.00005371  0.49536582  0.19535032    -0.84400
C1611       C  0.91377077  0.84642278  0.17837436     0.97900
C1612       C  0.82794862  0.92297665  0.09407997     0.97700
C1613       C  0.64774129  0.84317678  0.32329061     0.31500
C1614       C  0.64400596  0.83934024  0.42077671     0.31500
C1615       C  0.62226362  0.85593594  0.34555634    -0.04700
C1616       C  0.63524358  0.80386946  0.34413365    -0.05500
C1617       C  0.68445179  0.86701730  0.35229385    -0.05300
C1618       C  0.62016346  0.85366983  0.39469918    -0.04700
C1619       C  0.63339767  0.80213479  0.39359519    -0.05500
C1620       C  0.68228087  0.86522399  0.40237806    -0.05300
C1621       C  0.59698574  0.86727965  0.40729682    -0.30700
N1622       N  0.58550327  0.87844867  0.36758944     0.15800
C1623       C  0.60084807  0.87165081  0.32966194    -0.30700
H1624       H  0.59674047  0.87758699  0.29318567     0.17700
C1625       C  0.62359715  0.76570753  0.40530611    -0.29700
N1626       N  0.62000895  0.74517738  0.36516551     0.14500
C1627       C  0.62669427  0.76815574  0.32748498    -0.29700
C1628       C  0.71652908  0.87331858  0.42113962    -0.30000
N1629       N  0.73959929  0.88049965  0.38545336     0.15000
H1630       H  0.72292660  0.87005690  0.45782199     0.17600
C1631       C  0.71995544  0.87516860  0.34366796    -0.30000
H1632       H  0.72993960  0.87436407  0.30913879     0.17600
H1633       H  0.62416724  0.75924817  0.29071789     0.17600
H1634       H  0.58966275  0.86969516  0.44299410     0.17700
H1635       H  0.61832088  0.75454347  0.44064469     0.17600
C1636       C  0.63133712  0.83279239  0.07351086     0.31500
C1637       C  0.63958904  0.84256656  0.17201211     0.31500
C1638       C  0.61785393  0.85844613  0.09586805    -0.04700
C1639       C  0.61154375  0.79689431  0.10305154    -0.05500
C1640       C  0.67040335  0.85012761  0.09576853    -0.05300
C1641       C  0.62226477  0.86343946  0.14571061    -0.04700
C1642       C  0.61577008  0.80273598  0.15262441    -0.05500
C1643       C  0.67430062  0.85484943  0.14538589    -0.05300
C1644       C  0.61128989  0.88898057  0.15794690    -0.30700
N1645       N  0.59980947  0.89914797  0.11767518     0.15800
C1646       C  0.60366149  0.88083372  0.07966988    -0.30700
H1647       H  0.59767988  0.88447684  0.04292802     0.17700
C1648       C  0.60022081  0.76886252  0.17348288    -0.29700
N1649       N  0.58675149  0.74173098  0.13898005     0.14500
C1650       C  0.59364448  0.75832577  0.09581136    -0.29700
C1651       C  0.71063540  0.87603351  0.15725376    -0.30000
N1652       N  0.72902249  0.88378519  0.11686197     0.15000
H1653       H  0.72279803  0.88658249  0.19242219     0.17600
C1654       C  0.70495493  0.86821401  0.07924791    -0.30000
H1655       H  0.71206381  0.87188880  0.04243233     0.17600
H1656       H  0.58802859  0.74349445  0.06195214     0.17600
H1657       H  0.61185499  0.89967276  0.19335740     0.17700
H1658       H  0.60156192  0.76466871  0.21116281     0.17600
C1659       C  0.64765125  0.84544060  0.26955729    -0.11800
C1660       C  0.64456900  0.84595994  0.22586053    -0.13300
C1661       C  0.64013690  0.83769015  0.51801343    -0.11800
C1662       C  0.64153007  0.83773561  0.47438158    -0.13300
C1663       C  0.56572267  0.68819410  0.19089500    -0.14900
C1664       C  0.57395147  0.70259713  0.14717153    -0.30100
H1665       H  0.56433517  0.70451633  0.22038961     0.14100
H1666       H  0.57329752  0.68497604  0.11768684     0.14700
C1667       C  0.76754211  0.90748685  0.11651499    -0.14900
C1668       C  0.78844030  0.90575738  0.08255604    -0.30100
H1669       H  0.78044698  0.92454247  0.14849127     0.14100
H1670       H  0.77659096  0.88876903  0.05034116     0.14700
C1671       C  0.58677316  0.92592603  0.11626363    -0.14900
C1672       C  0.56007439  0.92168194  0.08492666    -0.30100
H1673       H  0.59691159  0.94820934  0.14332988     0.14100
H1674       H  0.54754105  0.89726653  0.06102417     0.14700
C1675       C  0.60022051  0.70458830  0.36386441    -0.14900
C1676       C  0.61285521  0.68112077  0.34862075    -0.30100
H1677       H  0.57484736  0.69259151  0.38209213     0.14100
H1678       H  0.63850570  0.69200856  0.33127643     0.14700
C1679       C  0.79870058  0.90307647  0.42998349    -0.14900
C1680       C  0.77730003  0.88806400  0.38988042    -0.30100
H1681       H  0.78749085  0.90981622  0.46016828     0.14100
H1682       H  0.78929602  0.88345126  0.35885119     0.14700
C1683       C  0.56271830  0.92013545  0.33600093    -0.14900
C1684       C  0.56072847  0.89410243  0.36721489    -0.30100
H1685       H  0.58391871  0.93016713  0.31052326     0.14100
H1686       H  0.54177797  0.88673266  0.39547096     0.14700
C1687       C  0.87356439  0.95270811  0.31721656    -0.17000
C1688       C  0.86105520  0.97321553  0.32580590     0.07100
C1689       C  0.12727716  0.52371316  0.28805331     0.08900
C1690       C  0.11496536  0.54459407  0.29513726    -0.17800
C1691       C  0.00546357  0.10559418  0.07359588    -0.17000
C1692       C  0.98367029  0.11578000  0.08280577     0.07100
C1693       C  0.98207667  0.38107338  0.03351171     0.08900
C1694       C  0.96188155  0.39419603  0.03795299    -0.17800
C1695       C  0.93218254  0.61126627  0.25335401    -0.14900
C1696       C  0.93364419  0.58853781  0.28695908    -0.30100
H1697       H  0.94975099  0.61783934  0.22359404     0.14100
H1698       H  0.91364603  0.57878012  0.31404837     0.14700
C1699       C  0.89217896  0.79140459  0.22950719    -0.14900
C1700       C  0.90636042  0.80811832  0.18853758    -0.30100
H1701       H  0.88927832  0.80750944  0.25820401     0.14100
H1702       H  0.91118541  0.79294035  0.16056472     0.14700
C1703       C  0.68475681  0.58355940  0.27316646    -0.14900
C1704       C  0.70624194  0.58659880  0.23689880    -0.30100
H1705       H  0.69638052  0.59352451  0.30879131     0.14100
H1706       H  0.69345267  0.57663609  0.20166139     0.14700
C1707       C  0.90222961  0.58274783  0.49328133    -0.14900
C1708       C  0.93117353  0.58914852  0.52266615    -0.30100
H1709       H  0.89336148  0.56105861  0.46559516     0.14100
H1710       H  0.94237692  0.61294586  0.54751487     0.14700
C1711       C  0.92203600  0.82656266  0.51437042    -0.14900
C1712       C  0.91760810  0.79870860  0.48387401    -0.30100
H1713       H  0.91058086  0.82000858  0.54904369     0.14100
H1714       H  0.93974127  0.81407120  0.97008823     0.14700
C1715       C  0.70795620  0.62066417  0.49250932    -0.14900
C1716       C  0.68646056  0.62187175  0.52723195    -0.30100
H1717       H  0.69422856  0.60687518  0.45891628     0.14100
H1718       H  0.69846238  0.63738432  0.56041362     0.14700
C1719       C  0.83864828  0.65914412  0.39101061    -0.11800
C1720       C  0.84054595  0.65923043  0.34721124    -0.13300
C1721       C  0.84069339  0.65389632  0.13992914    -0.11800
C1722       C  0.84271544  0.65885740  0.09644372    -0.13300
C1723       C  0.84307290  0.66228174  0.54381117     0.31500
C1724       C  0.84943174  0.66719447  0.94432403     0.31500
C1725       C  0.85711762  0.63790126  0.51938747    -0.04700
C1726       C  0.80433971  0.64791378  0.51995341    -0.05500
C1727       C  0.86479967  0.70061048  0.51922256    -0.05300
C1728       C  0.86480600  0.64420431  0.96940222    -0.04700
C1729       C  0.81085121  0.65007525  0.96345205    -0.05500
C1730       C  0.86925534  0.70472690  0.97248098    -0.05300
C1731       C  0.87993264  0.62261555  0.95529470    -0.30700
N1732       N  0.88825518  0.60866195  0.99463316     0.15800
C1733       C  0.87596498  0.61905714  0.53371039    -0.30700
H1734       H  0.88330183  0.61565904  0.56994654     0.17700
C1735       C  0.77606474  0.63867006  0.94450064    -0.29700
N1736       N  0.75285391  0.62980370  0.98064085     0.14500
C1737       C  0.77006411  0.64043483  0.53465314    -0.29700
C1738       C  0.88882190  0.74156100  0.96050777    -0.30000
N1739       N  0.89545019  0.75878002  0.49081833     0.15000
H1740       H  0.89537358  0.75177162  0.92488513     0.17600
C1741       C  0.88534098  0.73878488  0.53155745    -0.30000
H1742       H  0.89226121  0.75090576  0.56717459     0.17600
H1743       H  0.76245193  0.63959386  0.57099506     0.17600
H1744       H  0.88471752  0.61751626  0.91924504     0.17700
H1745       H  0.76877221  0.63879671  0.90729045     0.17600
C1746       C  0.85456892  0.66587785  0.79335418     0.31500
C1747       C  0.84855507  0.65817289  0.69495680     0.31500
C1748       C  0.87484130  0.64686121  0.77078528    -0.04700
C1749       C  0.81608737  0.64268824  0.77071141    -0.05500
C1750       C  0.86878388  0.70242134  0.76530058    -0.05300
C1751       C  0.87204319  0.64338307  0.72076934    -0.04700
C1752       C  0.81285048  0.63864200  0.72105796    -0.05500
C1753       C  0.86557359  0.69766974  0.71580034    -0.05300
C1754       C  0.89447364  0.62934209  0.70769040    -0.30700
N1755       N  0.91015080  0.62349321  0.74766162     0.15800
C1756       C  0.89845492  0.63406885  0.78628883    -0.30700
H1757       H  0.90758540  0.63390024  0.82274700     0.17700
C1758       C  0.77623655  0.61877401  0.70885597    -0.29700
N1759       N  0.75753225  0.61067285  0.74942537     0.14500
C1760       C  0.78156934  0.62555253  0.78716542    -0.29700
C1761       C  0.87795802  0.73169971  0.69616655    -0.30000
N1762       N  0.88908873  0.75783175  0.73165848     0.15000
H1763       H  0.87714798  0.73664729  0.65856916     0.17600
C1764       C  0.88325643  0.74049387  0.77416323    -0.30000
H1765       H  0.88852478  0.75445570  0.80858615     0.17600
H1766       H  0.77434257  0.62437809  0.82372449     0.17600
H1767       H  0.89947396  0.62421244  0.67177123     0.17700
H1768       H  0.76414989  0.61202629  0.67304959     0.17600
N1769       N  0.59974804  0.57839563  0.94148931    -0.04600
N1770       N  0.63344794  0.59828810  0.96050176    -0.56700
N1771       N  0.54299940  0.57279421  0.85774157    -0.04300
N1772       N  0.55554659  0.60050305  0.82691883    -0.58800
N1773       N  0.53629439  0.58497740  0.89749840    -0.03900
N1774       N  0.54122619  0.61926990  0.89277298    -0.56700
N1775       N  0.59996170  0.56005770  0.90313841    -0.03600
N1776       N  0.63353598  0.56772955  0.89446088    -0.59200
C1777       C  0.65421281  0.59138908  0.93043782     0.97600
C1778       C  0.55283686  0.62899056  0.84867292     0.97400
N1779       N  0.95361695  0.99162042  0.89958909    -0.04800
N1780       N  0.92384863  0.99632164  0.89681280    -0.57300
N1781       N  0.52417349  0.97969721  0.83154888    -0.02900
N1782       N  0.55071305  0.97303514  0.81877316    -0.58500
N1783       N  0.49798595  0.94922547  0.84927987    -0.04800
N1784       N  0.50644671  0.92175246  0.84871294    -0.57600
N1785       N  0.50274728  0.48201099  0.81616223    -0.02500
N1786       N  0.51328093  0.46591075  0.78454774    -0.58600
Mn1787     Mn  0.54911726  0.52122955  0.86216336     1.18400
C1788       C  0.08336571  0.54813139  0.79819710     0.99700
C1789       C  0.53930578  0.93683781  0.82944183     1.00300
N1790       N  0.98929173  0.55005751  0.02501814    -0.04800
N1791       N  0.98332047  0.57789497  0.03750824    -0.61100
N1792       N  0.00513852  0.01274820  0.53073205    -0.03600
N1793       N  0.00652573  0.03472692  0.56559733    -0.61800
N1794       N  0.50043268  0.55530448  0.53200327    -0.04300
N1795       N  0.49570354  0.58282895  0.54930085    -0.61400
N1796       N  0.95951007  0.52236982  0.00495378    -0.03200
N1797       N  0.93271835  0.53082933  0.00447738    -0.62100
Mn1798     Mn  0.54601329  0.56743249  0.96814734     1.10700
C1799       C  0.94792265  0.56527468  0.02521767     1.00900
C1800       C  0.03890326  0.06609070  0.56649653     1.01000
N1801       N  0.94936896  0.91249230  0.95680561    -0.04300
N1802       N  0.94391984  0.87801262  0.96224896    -0.59700
N1803       N  0.88685354  0.94026829  0.94538970    -0.03700
N1804       N  0.85243882  0.93328935  0.94753568    -0.56500
N1805       N  0.88969116  0.92168450  0.90899639    -0.05000
N1806       N  0.85770548  0.90138986  0.88642449    -0.59300
N1807       N  0.94251976  0.92533423  0.99576853    -0.04000
N1808       N  0.92994314  0.89809174  0.02728651    -0.56500
Mn1809     Mn  0.94353829  0.93210422  0.88643212     1.20200
Mn1810     Mn  0.93873201  0.97865663  0.98982950     1.10100
Cl1811     Cl  0.01498778  0.51055050  0.94016731    -0.84400
C1812       C  0.93247121  0.86918480  0.00656235     0.97900
C1813       C  0.83461898  0.90894730  0.91014830     0.97700
N1814       N  0.60752331  0.55328132  0.71915692    -0.04600
N1815       N  0.63676673  0.55804157  0.74483349    -0.56700
N1816       N  0.58773436  0.59923349  0.64978226    -0.04300
N1817       N  0.60010969  0.63297759  0.63225020    -0.58400
N1818       N  0.57946766  0.59925716  0.69448832    -0.03900
N1819       N  0.58690885  0.63316797  0.70845473    -0.56700
N1820       N  0.61116970  0.54835786  0.67382491    -0.03600
N1821       N  0.64261553  0.54944501  0.66790972    -0.59200
C1822       C  0.65821239  0.55526571  0.71198093     0.97600
C1823       C  0.59966436  0.65370826  0.66958618     0.97400
N1824       N  0.95631253  0.00403769  0.62322018    -0.04800
N1825       N  0.93651786  0.02074994  0.61162563    -0.57300
N1826       N  0.53307023  0.98706494  0.59660168    -0.02900
N1827       N  0.55922696  0.97761870  0.59666065    -0.58500
N1828       N  0.50190702  0.95883761  0.58065726    -0.04800
N1829       N  0.50678107  0.92994697  0.56948914    -0.57600
N1830       N  0.52047654  0.53986398  0.63867091    -0.02500
N1831       N  0.51728192  0.57037283  0.64927833    -0.58600
Mn1832     Mn  0.57343244  0.54576255  0.61445112     1.18400
C1833       C  0.96322594  0.42309206  0.54267500     0.99700
C1834       C  0.54252686  0.94207367  0.57937480     1.00300
N1835       N  0.00063832  0.55662804  0.75668105    -0.04800
N1836       N  0.99361189  0.58503494  0.75951642    -0.61100
N1837       N  0.94666911  0.94410011  0.75835795    -0.03600
N1838       N  0.91597657  0.92197245  0.77880218    -0.61800
N1839       N  0.54509394  0.49398199  0.70345596    -0.04300
N1840       N  0.56913309  0.48116215  0.70366037    -0.61400
N1841       N  0.97369710  0.52633560  0.77374238    -0.03200
N1842       N  0.94843516  0.53397765  0.78862826    -0.62100
Mn1843     Mn  0.55559283  0.54905525  0.73955418     1.10700
C1844       C  0.96116109  0.57048487  0.77991774     1.00900
C1845       C  0.91145851  0.94520403  0.80757382     1.01000
N1846       N  0.92870472  0.89686499  0.63316601    -0.04300
N1847       N  0.93043886  0.86547679  0.62880646    -0.59700
N1848       N  0.88374786  0.94726470  0.63595600    -0.03700
N1849       N  0.85090656  0.94323972  0.63811277    -0.56500
N1850       N  0.88967525  0.93998323  0.59285768    -0.05000
N1851       N  0.86036887  0.93080659  0.56452666    -0.59300
N1852       N  0.91609500  0.89876238  0.67401458    -0.04000
N1853       N  0.90883132  0.86895589  0.69893462    -0.56500
Mn1854     Mn  0.94924181  0.94963962  0.58854848     1.20200
Mn1855     Mn  0.91777903  0.95000855  0.69812617     1.10100
Cl1856     Cl  0.00434392  0.49458747  0.69408198    -0.84400
C1857       C  0.91787336  0.84854481  0.67028310     0.97900
C1858       C  0.83644388  0.93328977  0.59354476     0.97700
C1859       C  0.64377259  0.83634971  0.82349438     0.31500
C1860       C  0.63436076  0.83148969  0.92112866     0.31500
C1861       C  0.62033025  0.85276758  0.84351874    -0.04700
C1862       C  0.62501657  0.79596440  0.84374359    -0.05500
C1863       C  0.67929215  0.85613112  0.85656292    -0.05300
C1864       C  0.61541683  0.84992155  0.89254331    -0.04700
C1865       C  0.62071502  0.79419528  0.89311934    -0.05500
C1866       C  0.67372321  0.85373738  0.90557127    -0.05300
C1867       C  0.59213071  0.86382741  0.90220694    -0.30700
N1868       N  0.58336000  0.87587582  0.86124701     0.15800
C1869       C  0.60032095  0.86923111  0.82515702    -0.30700
H1870       H  0.59741230  0.87483889  0.78816760     0.17700
C1871       C  0.60163396  0.75708806  0.90412356    -0.29700
N1872       N  0.59406655  0.73552000  0.86401743     0.14500
C1873       C  0.60818086  0.75876950  0.82669804    -0.29700
C1874       C  0.70719127  0.87171826  0.92923760    -0.30000
N1875       N  0.73364411  0.88423772  0.89769610     0.15000
H1876       H  0.71220668  0.87448441  0.96747058     0.17600
C1877       C  0.71716892  0.87491448  0.85293160    -0.30000
H1878       H  0.73150333  0.88099051  0.82041034     0.17600
H1879       H  0.60491927  0.74953054  0.78993383     0.17600
H1880       H  0.58206880  0.86492365  0.93658225     0.17700
H1881       H  0.59264605  0.74641735  0.93898458     0.17600
C1882       C  0.64094887  0.83918318  0.57191533     0.31500
C1883       C  0.64514582  0.84329925  0.67081579     0.31500
C1884       C  0.62258191  0.85957273  0.59520419    -0.04700
C1885       C  0.62385580  0.80164315  0.59725983    -0.05500
C1886       C  0.67919325  0.85929261  0.59592238    -0.05300
C1887       C  0.62479706  0.86200202  0.64523741    -0.04700
C1888       C  0.62594242  0.80397053  0.64733927    -0.05500
C1889       C  0.68151417  0.86152017  0.64576257    -0.05300
C1890       C  0.61008472  0.88456519  0.65768812    -0.30700
N1891       N  0.59843506  0.89482377  0.61733728     0.15800
C1892       C  0.60603572  0.87979876  0.57915822    -0.30700
H1893       H  0.60148600  0.88472960  0.54239403     0.17700
C1894       C  0.62135160  0.77033647  0.66309856    -0.29700
N1895       N  0.61578326  0.74737233  0.62503709     0.14500
C1896       C  0.61809618  0.76639144  0.58481710    -0.29700
C1897       C  0.71784749  0.88260140  0.65893882    -0.30000
N1898       N  0.73720057  0.89259846  0.61906381     0.15000
H1899       H  0.72945342  0.89060543  0.69487728     0.17600
C1900       C  0.71392753  0.87853818  0.58036637    -0.30000
H1901       H  0.72151393  0.88301064  0.54382846     0.17600
H1902       H  0.61850548  0.75635024  0.54936528     0.17600
H1903       H  0.60870940  0.89360569  0.69332352     0.17700
H1904       H  0.62565137  0.76475690  0.69961771     0.17600
C1905       C  0.64708088  0.84004182  0.76941829    -0.11800
C1906       C  0.64713691  0.84315443  0.72546249    -0.13300
C1907       C  0.62893294  0.82941931  0.01907301    -0.11800
C1908       C  0.63006931  0.82936977  0.97506439    -0.13300
C1909       C  0.60507810  0.69171765  0.66694806    -0.14900
C1910       C  0.61200246  0.71045218  0.62645142    -0.30100
H1911       H  0.60158756  0.70371413  0.69938414     0.14100
H1912       H  0.61381767  0.69733505  0.59377339     0.14700
C1913       C  0.77600295  0.91539486  0.61984732    -0.14900
C1914       C  0.79665296  0.91579252  0.58413030    -0.30100
H1915       H  0.78914995  0.93032171  0.65310465     0.14100
H1916       H  0.78445746  0.90054682  0.55084794     0.14700
C1917       C  0.58330465  0.92001274  0.61552955    -0.14900
C1918       C  0.55885986  0.91702528  0.58081442    -0.30100
H1919       H  0.59063307  0.94071094  0.64418096     0.14100
H1920       H  0.54874057  0.89407419  0.55477871     0.14700
C1921       C  0.57070753  0.69525269  0.86465103    -0.14900
C1922       C  0.57205624  0.66947824  0.83534088    -0.30100
H1923       H  0.55349078  0.68501298  0.89481340     0.14100
H1924       H  0.58930707  0.67818074  0.80520104     0.14700
C1925       C  0.79619223  0.89531794  0.89172869    -0.14900
C1926       C  0.77207833  0.90275790  0.91261639    -0.30100
H1927       H  0.78700487  0.87693142  0.86034311     0.14100
H1928       H  0.78065782  0.91941603  0.94556532     0.14700
C1929       C  0.56282572  0.91871548  0.82836377    -0.14900
C1930       C  0.55840005  0.89101316  0.85799314    -0.30100
H1931       H  0.58581471  0.93024078  0.80559463     0.14100
H1932       H  0.53724864  0.88197344  0.88354895     0.14700
C1933       C  0.87843806  0.94816981  0.80397289    -0.17000
C1934       C  0.86611498  0.96946524  0.80713577     0.07100
C1935       C  0.12853119  0.52400891  0.79354742     0.08900
C1936       C  0.11650986  0.54542143  0.79853903    -0.17800
C1937       C  0.03714882  0.10063313  0.56874636    -0.17000
C1938       C  0.01972799  0.11695105  0.57287691     0.07100
C1939       C  0.98859827  0.37820381  0.53412604     0.08900
C1940       C  0.96750751  0.38996803  0.54011694    -0.17800
C1941       C  0.93611636  0.60984315  0.74775186    -0.14900
C1942       C  0.93833395  0.58877179  0.78289174    -0.30100
H1943       H  0.95191627  0.61397528  0.71657948     0.14100
H1944       H  0.91974843  0.58109420  0.81157657     0.14700
C1945       C  0.90106693  0.79672215  0.72436133    -0.14900
C1946       C  0.91337001  0.81190028  0.68222138    -0.30100
H1947       H  0.89791570  0.81315608  0.75242526     0.14100
H1948       H  0.91860816  0.79653281  0.65489986     0.14700
C1949       C  0.69717650  0.56753518  0.71846222    -0.14900
C1950       C  0.71863412  0.59208338  0.75244230    -0.30100
H1951       H  0.70939147  0.56002957  0.69010279     0.14100
H1952       H  0.70682601  0.59951168  0.78144796     0.14700
C1953       C  0.90415322  0.58441547  0.99421234    -0.14900
C1954       C  0.93050476  0.58901216  0.02641775    -0.30100
H1955       H  0.89626640  0.56377581  0.96534596     0.14100
H1956       H  0.94096171  0.61214555  0.05225291     0.14700
C1957       C  0.91530903  0.82944345  0.02279049    -0.14900
C1958       C  0.92082673  0.80395133  0.99852683    -0.30100
H1959       H  0.89600910  0.82058521  0.05068570     0.14100
H1960       H  0.92891130  0.80664545  0.44914226     0.14700
C1961       C  0.71423532  0.61854115  0.97683611    -0.14900
C1962       C  0.69419855  0.60555167  0.93567474    -0.30100
H1963       H  0.70076485  0.61910010  0.00868170     0.14100
H1964       H  0.70700187  0.60259785  0.90451540     0.14700
C1965       C  0.85271670  0.66892117  0.89069714    -0.11800
C1966       C  0.85540513  0.66890671  0.84721274    -0.13300
C1967       C  0.84597302  0.65751944  0.64101583    -0.11800
C1968       C  0.84490790  0.66087250  0.59756151    -0.13300
loop_ 
_geom_bond_atom_site_label_1 
_geom_bond_atom_site_label_2 
_geom_bond_distance 
_geom_bond_site_symmetry_2 
_ccdc_geom_bond_type 
C1            C3   1.539       .  S
C1            C5   1.557       .  S
C1            C4   1.548       .  S
C1          C246   1.534       .  S
C2            C6   1.545       .  S
C2            C8   1.552       .  S
C2            C7   1.523       .  S
C2          C243   1.531       .  S
C3           C11   1.375       .  A
C3          C252   1.407   1_554  A
C4           C15   1.384       .  A
C4          C253   1.399   1_554  A
C5           C19   1.392       .  A
C5          C254   1.426   1_554  A
C6            C9   1.381       .  A
C6          C249   1.406       .  A
C7           C13   1.366       .  A
C7          C250   1.396       .  A
C8           C16   1.378       .  A
C8          C251   1.414       .  A
C9           N10   1.364       .  A
C9           H22   1.082       .  S
N10         C257   1.358       .  A
N10         C231   1.441       .  S
C11         N256   1.357   1_554  A
C11          H12   1.083       .  S
C13          N14   1.355       .  A
C13          H23   1.081       .  S
N14         C261   1.360       .  A
N14         C239   1.432       .  S
C15         N260   1.368   1_554  A
C15          H21   1.082       .  S
C16         N263   1.362       .  A
C16          H18   1.083       .  S
N17          C19   1.359   1_556  A
N17         C262   1.348       .  A
N17         C482   1.436       .  S
C19          H20   1.082       .  S
C24          C26   1.543       .  S
C24          C28   1.546       .  S
C24          C27   1.568       .  S
C24         C244   1.531       .  S
C25          C29   1.542       .  S
C25          C31   1.534       .  S
C25          C30   1.551       .  S
C25         C245   1.534       .  S
C26          C34   1.380       .  A
C26          C29   1.404       .  A
C27          C38   1.404       .  A
C27          C30   1.411       .  A
C28          C42   1.382       .  A
C28          C31   1.401       .  A
C29          C32   1.380       .  A
C30          C36   1.377       .  A
C31          C39   1.376       .  A
C32          N33   1.363       .  A
C32          H45   1.082       .  S
N33          C34   1.359       .  A
N33         C219   1.444       .  S
C34          H35   1.083       .  S
C36          N37   1.363       .  A
C36          H46   1.083       .  S
N37          C38   1.371       .  A
N37         C228   1.461       .  S
C38          H44   1.081       .  S
C39          N40   1.359       .  A
C39          H41   1.081       .  S
N40          C42   1.363       .  A
N40         C223   1.445       .  S
C42          H43   1.083       .  S
N47          N48   1.311       .  A
N47          N53   1.303       .  A
N47         Mn76   2.114       .  S
N48          C55   1.344       .  A
N49          N51   1.315       .  A
N49          N50   1.326       .  A
N49         Mn65   2.231       .  S
N50          C56   1.361       .  A
N51          N52   1.309       .  A
N51         Mn76   2.175       .  S
N52          C56   1.346       .  A
N53          N54   1.324       .  A
N53         Mn65   2.208       .  S
N54          C55   1.357       .  A
C55         C240   1.465       .  S
C56         C200   1.480       .  S
N57          N58   1.322       .  A
N57        N1539   1.334       .  A
N57         Mn87   2.199       .  S
N58         C558   1.342       .  A
N59          N60   1.325       .  A
N59          N61   1.325       .  A
N59        Mn557   2.277       .  S
N60          C67   1.357       .  A
N61          N62   1.321       .  A
N61       Mn1071   2.215   1_455  S
N62          C67   1.352       .  A
N63          N64   1.351       .  A
N63        N1533   1.317   1_545  A
N63         Mn65   2.265   1_655  S
N64        C1050   1.344       .  A
Mn65        N551   2.212   1_545  S
Mn65      Cl1073   2.679   1_445  S
C66         N550   1.332       .  A
C66        N1048   1.347       .  A
C66         C214   1.437       .  S
C67         C207   1.482       .  S
N68          N69   1.322       .  A
N68          N74   1.327       .  A
N68       Mn1060   2.260       .  S
N69          C77   1.353       .  A
N70          N71   1.332       .  A
N70        N1548   1.311       .  A
N70        Mn334   2.307   1_556  S
N71          C78   1.352       .  A
N72          N73   1.324       .  A
N72        N1546   1.315   1_455  A
N72        Mn322   2.101   1_554  S
N73        C1554   1.328       .  A
N74          N75   1.322       .  A
N74        Mn580   2.237   1_545  S
N75          C77   1.355       .  A
Mn76       N1052   2.254   1_455  S
Mn76        N318   2.104       .  S
Mn76      Cl1073   2.485   1_445  S
C77         C232   1.478       .  S
C78        N1549   1.338       .  A
C78         C215   1.433   1_556  S
N79          N80   1.317       .  A
N79          N85   1.314       .  A
N79         Mn87   2.168       .  S
N80          C90   1.346       .  A
N81          N82   1.312       .  A
N81          N83   1.315       .  A
N81         Mn88   2.149       .  S
N82          C91   1.338       .  A
N83          N84   1.339       .  A
N83         Mn87   2.289       .  S
N84          C91   1.374       .  A
N85          N86   1.334       .  A
N85         Mn88   2.271       .  S
N86          C90   1.367       .  A
Mn87       N1045   2.191       .  S
Mn87       Cl581   2.543       .  S
Mn88        N316   2.177       .  S
Mn88        N566   2.183       .  S
Mn88       Cl581   2.510       .  S
Cl89      Mn1049   2.672       .  S
Cl89      Mn1060   2.504       .  S
Cl89       Mn579   2.594   1_545  S
Cl89       Mn580   2.641   1_545  S
C90         C235   1.507       .  S
C91         C203   1.509       .  S
N92          N93   1.335       .  A
N92          N98   1.319       .  A
N92        Mn121   2.248   1_455  S
N93         C100   1.366       .  A
N94          N96   1.317       .  A
N94          N95   1.321       .  A
N94        Mn110   2.195       .  S
N95         C101   1.350       .  A
N96          N97   1.327       .  A
N96        Mn121   2.288   1_455  S
N97         C101   1.361       .  A
N98          N99   1.320       .  A
N98        Mn110   2.204       .  S
N99         C100   1.346       .  A
C100        C227   1.516       .  S
C101        C187   1.489       .  S
N102        N103   1.312       .  A
N102       N1584   1.308       .  A
N102       Mn132   2.224       .  S
N103        C603   1.350       .  A
N104        N105   1.323       .  A
N104        N106   1.326       .  A
N104       Mn602   2.228       .  S
N105        C112   1.355       .  A
N106        N107   1.321       .  A
N106      Mn1116   2.254   1_455  S
N107        C112   1.352       .  A
N108        N109   1.350       .  A
N108       N1578   1.315   1_545  A
N108       Mn110   2.283   1_655  S
N109       C1095   1.338       .  A
Mn110       N596   2.192   1_545  S
Mn110     Cl1118   2.592   1_445  S
C111        N595   1.345       .  A
C111       N1093   1.341       .  A
C111        C218   1.432       .  S
C112        C196   1.477       .  S
N113        N114   1.327       .  A
N113        N119   1.326       .  A
N113      Mn1105   2.236       .  S
N114        C122   1.359       .  A
N115        N116   1.323       .  A
N115       N1593   1.311       .  A
N115       Mn133   2.238       .  S
N116        C123   1.329       .  A
N117        N118   1.310       .  A
N117       N1591   1.311       .  A
N117       Mn121   2.229   1_565  S
N118       C1599   1.338       .  A
N119        N120   1.318       .  A
N119       Mn625   2.255   1_545  S
N120        C122   1.348       .  A
Mn121      N1097   2.224       .  S
Mn121     Cl1118   2.639   1_545  S
C122        C220   1.478       .  S
C123       N1594   1.351       .  A
C123        C211   1.434       .  S
N124        N125   1.326       .  A
N124        N130   1.323       .  A
N124       Mn132   2.302       .  S
N125        C135   1.361       .  A
N126        N127   1.314       .  A
N126        N128   1.317       .  A
N126       Mn133   2.312       .  S
N127        C136   1.347       .  A
N128        N129   1.330       .  A
N128       Mn132   2.249       .  S
N129        C136   1.362       .  A
N130        N131   1.317       .  A
N130       Mn133   2.301       .  S
N131        C135   1.350       .  A
Mn132      N1090   2.253       .  S
Mn132      Cl626   2.659       .  S
Mn133       N611   2.270       .  S
Mn133      Cl626   2.585       .  S
Cl134     Mn1094   2.530       .  S
Cl134     Mn1105   2.598       .  S
Cl134      Mn625   2.498   1_545  S
Cl134      Mn624   2.685   1_545  S
C135        C224   1.482       .  S
C136        C192   1.494       .  S
C137        C139   1.547       .  S
C137        C141   1.554       .  S
C137        C140   1.536       .  S
C137        C183   1.522       .  S
C138        C142   1.539       .  S
C138        C144   1.559       .  S
C138        C143   1.535       .  S
C138        C186   1.537       .  S
C139        C147   1.384       .  A
C139        C142   1.403       .  A
C140        C151   1.380       .  A
C140        C143   1.402       .  A
C141        C155   1.392       .  A
C141        C144   1.411       .  A
C142        C145   1.378       .  A
C143        C149   1.368       .  A
C144        C152   1.384       .  A
C145        N146   1.358       .  A
C145        H158   1.082       .  S
N146        C147   1.363       .  A
N146        C208   1.444       .  S
C147        H148   1.082       .  S
C149        N150   1.357       .  A
C149        H159   1.083       .  S
N150        C151   1.359       .  A
N150        C199   1.434       .  S
C151        H157   1.081       .  S
C152        N153   1.368       .  A
C152        H154   1.083       .  S
N153        C155   1.364       .  A
N153        C204   1.454       .  S
C155        H156   1.082       .  S
C160        C162   1.535       .  S
C160        C164   1.545       .  S
C160        C163   1.557       .  S
C160        C431   1.523       .  S
C161        C165   1.546       .  S
C161        C167   1.540       .  S
C161        C166   1.536       .  S
C161        C184   1.523       .  S
C162        C170   1.373       .  A
C162        C165   1.404       .  A
C163        C174   1.387       .  A
C163        C166   1.404       .  A
C164        C178   1.389       .  A
C164        C167   1.406       .  A
C165        C168   1.384       .  A
C166        C172   1.377       .  A
C167        C175   1.372       .  A
C168        N169   1.364       .  A
C168        H181   1.082       .  S
N169        C170   1.354       .  A
N169        C195   1.437       .  S
C170        H171   1.083       .  S
C172        N173   1.360       .  A
C172        H182   1.081       .  S
N173        C174   1.367       .  A
N173        C188   1.451       .  S
C174        H180   1.083       .  S
C175        N176   1.358       .  A
C175        H177   1.083       .  S
N176        C178   1.362       .  A
N176        C191   1.444       .  S
C178        H179   1.081       .  S
C183        C184   1.237       .  T
C185        C406   1.536       .  S
C185        C186   1.245       .  T
C187        C188   1.357       .  D
C187        H189   1.084       .  S
C188        H190   1.087       .  S
C191        C192   1.355       .  D
C191        H193   1.087       .  S
C192        H194   1.085       .  S
C195        C196   1.340       .  D
C195        H197   1.087       .  S
C196        H198   1.086       .  S
C199        C200   1.351       .  D
C199        H201   1.087       .  S
C200        H202   1.085       .  S
C203        C204   1.369       .  D
C203        H205   1.085       .  S
C204        H206   1.087       .  S
C207        C208   1.345       .  D
C207        H209   1.086       .  S
C208        H210   1.087       .  S
C211        C212   1.200       .  T
C212        C705   1.393       .  S
C213        C214   1.207       .  T
C213        C704   1.412   1_545  S
C215        C216   1.206       .  T
C216        C709   1.412       .  S
C217        C218   1.203       .  T
C217        C708   1.409       .  S
C219        C220   1.342       .  D
C219        H221   1.087       .  S
C220        H222   1.086       .  S
C223        C224   1.353       .  D
C223        H225   1.087       .  S
C224        H226   1.084       .  S
C227        C228   1.364       .  D
C227        H229   1.085       .  S
C228        H230   1.087       .  S
C231        C232   1.343       .  D
C231        H233   1.087       .  S
C232        H234   1.086       .  S
C235        C236   1.361       .  D
C235        H237   1.085       .  S
C236        N263   1.452       .  S
C236        H484   1.086       .  S
H238        C482   1.088       .  S
C239        C240   1.348       .  D
C239        H241   1.087       .  S
C240        H242   1.084       .  S
C243        C244   1.242       .  T
C245        C246   1.243       .  T
C247        C249   1.541       .  S
C247        C251   1.563       .  S
C247        C250   1.535       .  S
C247        C492   1.525       .  S
C248        C252   1.536       .  S
C248        C254   1.534       .  S
C248        C253   1.513       .  S
C248        C489   1.528       .  S
C249        C257   1.377       .  A
C250        C261   1.376       .  A
C251        C265   1.397       .  A
C252        C255   1.370       .  A
C253        C259   1.360       .  A
C254        C262   1.370       .  A
C255        N256   1.361       .  A
C255        H268   1.082       .  S
N256        C477   1.435   1_556  S
C257        H258   1.083       .  S
C259        N260   1.346       .  A
C259        H269   1.080       .  S
N260        C485   1.434       .  S
C261        H267   1.083       .  S
C262        H264   1.083       .  S
N263        C265   1.367       .  A
C265        H266   1.082       .  S
C270        C272   1.552       .  S
C270        C274   1.555       .  S
C270        C273   1.564       .  S
C270        C490   1.526       .  S
C271        C275   1.537       .  S
C271        C277   1.518       .  S
C271        C276   1.544       .  S
C271        C491   1.525       .  S
C272        C280   1.387       .  A
C272        C275   1.405       .  A
C273        C284   1.398       .  A
C273        C276   1.409       .  A
C274        C288   1.391       .  A
C274        C277   1.397       .  A
C275        C278   1.374       .  A
C276        C282   1.375       .  A
C277        C285   1.363       .  A
C278        N279   1.357       .  A
C278        H291   1.082       .  S
N279        C280   1.365       .  A
N279        C465   1.443       .  S
C280        H281   1.083       .  S
C282        N283   1.362       .  A
C282        H292   1.083       .  S
N283        C284   1.367       .  A
N283        C474   1.454       .  S
C284        H290   1.079       .  S
C285        N286   1.352       .  A
C285        H287   1.080       .  S
N286        C288   1.369       .  A
N286        C469   1.445       .  S
C288        H289   1.082       .  S
N293        N294   1.313       .  A
N293        N299   1.305       .  A
N293       Mn322   2.116       .  S
N294        C301   1.341       .  A
N295        N297   1.313       .  A
N295        N296   1.323       .  A
N295       Mn311   2.201       .  S
N296        C302   1.357       .  A
N297        N298   1.310       .  A
N297       Mn322   2.190       .  S
N298        C302   1.349       .  A
N299        N300   1.325       .  A
N299       Mn311   2.224       .  S
N300        C301   1.361       .  A
C301        C486   1.465       .  S
C302        C446   1.475       .  S
N303       N1785   1.320       .  A
N303        N304   1.318       .  A
N303       Mn333   2.117       .  S
N304        C804   1.328       .  A
N305        N306   1.319       .  A
N305        N307   1.326       .  A
N305       Mn803   2.257       .  S
N306        C313   1.350       .  A
N307        N308   1.321       .  A
N307      Mn1317   2.209   1_455  S
N308        C313   1.354       .  A
N309       N1779   1.317   1_545  A
N309        N310   1.351       .  A
N309       Mn311   2.270   1_655  S
N310       C1296   1.347       .  A
Mn311       N797   2.184   1_545  S
Mn311     Cl1319   2.677   1_445  S
C312        N796   1.330       .  A
C312       N1294   1.348       .  A
C312        C460   1.436       .  S
C313        C453   1.466       .  S
N314        N315   1.318       .  A
N314        N320   1.326       .  A
N314      Mn1306   2.242       .  S
N315        C323   1.349       .  A
N316       N1794   1.335       .  A
N316        N317   1.323       .  A
N317        C324   1.336       .  A
N318       N1792   1.308       .  A
N318        N319   1.320       .  A
N319       C1800   1.328       .  A
N320        N321   1.322       .  A
N320       Mn826   2.227   1_545  S
N321        C323   1.355       .  A
Mn322      N1298   2.244   1_455  S
Mn322     Cl1319   2.497   1_445  S
C323        C478   1.465       .  S
C324       N1795   1.340       .  A
C324        C461   1.433       .  S
N325        N326   1.317       .  A
N325        N331   1.314   1_556  A
N325       Mn333   2.260       .  S
N326        C336   1.356   1_556  A
N327        N328   1.319       .  A
N327        N329   1.307       .  A
N327       Mn334   2.315   1_556  S
N328        C337   1.357       .  A
N329        N330   1.319       .  A
N329       Mn333   2.188       .  S
N330        C337   1.352       .  A
N331        N332   1.321       .  A
N331       Mn334   2.274       .  S
N332        C336   1.356       .  A
Mn333      N1291   2.238       .  S
Mn333      Cl827   2.545       .  S
Mn334       N812   2.266       .  S
Mn334      Cl827   2.636   1_554  S
Cl335     Mn1295   2.672       .  S
Cl335     Mn1306   2.494       .  S
Cl335      Mn825   2.588   1_545  S
Cl335      Mn826   2.641   1_545  S
C336        C481   1.481       .  S
C337        C449   1.471       .  S
N338        N339   1.334       .  A
N338        N344   1.317       .  A
N338       Mn367   2.234       .  S
N339        C346   1.366       .  A
N340        N342   1.316       .  A
N340        N341   1.317       .  A
N340       Mn356   2.191       .  S
N341        C347   1.346       .  A
N342        N343   1.326       .  A
N342       Mn367   2.259       .  S
N343        C347   1.359       .  A
N344        N345   1.316       .  A
N344       Mn356   2.203       .  S
N345        C346   1.345       .  A
C346        C473   1.509       .  S
C347        C433   1.479       .  S
N348       N1830   1.317       .  A
N348        N349   1.344       .  A
N348       Mn378   2.290       .  S
N349        C849   1.338       .  A
N350        N351   1.320       .  A
N350        N352   1.327       .  A
N350       Mn848   2.222       .  S
N351        C358   1.353       .  A
N352        N353   1.321       .  A
N352      Mn1362   2.256   1_455  S
N353        C358   1.352       .  A
N354       N1824   1.316       .  A
N354        N355   1.333       .  A
N354       Mn356   2.339   1_655  S
N355       C1341   1.339       .  A
Mn356       N842   2.224   1_545  S
Mn356     Cl1364   2.518   1_445  S
C357        N841   1.343       .  A
C357       N1339   1.337       .  A
C357        C464   1.437       .  S
C358        C442   1.470       .  S
N359        N360   1.321       .  A
N359        N365   1.326       .  A
N359      Mn1351   2.210       .  S
N360        C368   1.352       .  A
N361       N1839   1.305       .  A
N361        N362   1.326       .  A
N361       Mn379   2.325       .  S
N362        C369   1.340       .  A
N363       N1837   1.309       .  A
N363        N364   1.306       .  A
N363       Mn367   2.222   1_665  S
N364       C1845   1.339       .  A
N365        N366   1.326       .  A
N365       Mn871   2.295   1_545  S
N366        C368   1.359       .  A
Mn367      N1343   2.230   1_455  S
Mn367     Cl1364   2.600   1_445  S
C368        C466   1.485       .  S
C369       N1840   1.344       .  A
C369        C457   1.432       .  S
N370        N371   1.327       .  A
N370        N376   1.314       .  A
N370       Mn378   2.335       .  S
N371        C381   1.364       .  A
N372        N373   1.308       .  A
N372        N374   1.307       .  A
N372       Mn379   2.286       .  S
N373        C382   1.349       .  A
N374        N375   1.319       .  A
N374       Mn378   2.204       .  S
N375        C382   1.355       .  A
N376        N377   1.315       .  A
N376       Mn379   2.223       .  S
N377        C381   1.346       .  A
Mn378      N1336   2.263       .  S
Mn378      Cl872   2.731       .  S
Mn379       N857   2.304       .  S
Mn379      Cl872   2.620       .  S
Cl380     Mn1340   2.592   1_565  S
Cl380     Mn1351   2.638   1_565  S
Cl380      Mn870   2.659       .  S
Cl380      Mn871   2.496       .  S
C381        C470   1.476       .  S
C382        C438   1.455       .  S
C383        C385   1.533       .  S
C383        C387   1.545       .  S
C383        C386   1.537       .  S
C383        C429   1.517       .  S
C384        C388   1.540       .  S
C384        C390   1.526       .  S
C384        C389   1.538       .  S
C384        C432   1.524       .  S
C385        C393   1.371       .  A
C385        C388   1.404       .  A
C386        C397   1.381       .  A
C386        C389   1.419       .  A
C387        C401   1.382       .  A
C387        C390   1.402       .  A
C388        C391   1.377       .  A
C389        C395   1.370       .  A
C390        C398   1.366       .  A
C391        N392   1.361       .  A
C391        H404   1.082       .  S
N392        C393   1.354       .  A
N392        C454   1.431       .  S
C393        H394   1.083       .  S
C395        N396   1.351       .  A
C395        H405   1.083       .  S
N396        C397   1.352       .  A
N396        C445   1.429       .  S
C397        H403   1.081       .  S
C398        N399   1.352       .  A
C398        H400   1.082       .  S
N399        C401   1.365       .  A
N399        C450   1.436       .  S
C401        H402   1.082       .  S
C406        C408   1.542       .  S
C406        C410   1.530       .  S
C406        C409   1.561       .  S
C407        C411   1.536       .  S
C407        C413   1.524       .  S
C407        C412   1.527       .  S
C407        C430   1.518       .  S
C408        C416   1.374       .  A
C408        C411   1.408       .  A
C409        C420   1.387       .  A
C409        C412   1.409       .  A
C410        C424   1.367       .  A
C410        C413   1.403       .  A
C411        C414   1.375       .  A
C412        C418   1.366       .  A
C413        C421   1.365       .  A
C414        N415   1.359       .  A
C414        H427   1.083       .  S
N415        C416   1.356       .  A
N415        C441   1.433       .  S
C416        H417   1.082       .  S
C418        N419   1.356       .  A
C418        H428   1.080       .  S
N419        C420   1.369       .  A
N419        C434   1.445       .  S
C420        H426   1.082       .  S
C421        N422   1.353       .  A
C421        H423   1.083       .  S
N422        C424   1.357       .  A
N422        C437   1.424       .  S
C424        H425   1.081       .  S
C429        C430   1.233       .  T
C431        C432   1.237   1_554  T
C433        C434   1.356       .  D
C433        H435   1.084       .  S
C434        H436   1.087       .  S
C437        C438   1.341       .  D
C437        H439   1.088       .  S
C438        H440   1.083       .  S
C441        C442   1.340       .  D
C441        H443   1.087       .  S
C442        H444   1.086       .  S
C445        C446   1.345       .  D
C445        H447   1.087       .  S
C446        H448   1.086       .  S
C449        C450   1.339       .  D
C449        H451   1.085       .  S
C450        H452   1.088       .  S
C453        C454   1.337       .  D
C453        H455   1.086       .  S
C454        H456   1.087       .  S
C457        C458   1.200       .  T
C458        C951   1.405       .  S
C459        C460   1.206       .  T
C459        C950   1.411   1_545  S
C461        C462   1.196       .  T
C462        C955   1.392       .  S
C463        C464   1.204       .  T
C463        C954   1.407       .  S
C465        C466   1.343       .  D
C465        H467   1.087       .  S
C466        H468   1.086       .  S
C469        C470   1.358       .  D
C469        H471   1.087       .  S
C470        H472   1.083       .  S
C473        C474   1.364       .  D
C473        H475   1.085       .  S
C474        H476   1.086       .  S
C477        C478   1.338   1_554  D
C477        H479   1.087       .  S
C478        H480   1.086       .  S
C481        C482   1.343   1_554  D
C481        H483   1.086       .  S
C485        C486   1.330       .  D
C485        H487   1.088       .  S
C486        H488   1.085   1_556  S
C489        C490   1.239       .  T
C491        C492   1.238       .  T
C493        C495   1.536       .  S
C493        C497   1.556       .  S
C493        C496   1.522       .  S
C493        C738   1.525       .  S
C494        C498   1.517       .  S
C494        C500   1.538       .  S
C494        C499   1.533       .  S
C494        C735   1.533       .  S
C495        C503   1.372       .  A
C495        C744   1.405   1_554  A
C496        C507   1.366       .  A
C496        C745   1.404   1_554  A
C497        C511   1.391       .  A
C497        C746   1.414   1_554  A
C498        C741   1.399       .  A
C498        C501   1.358       .  A
C499        C742   1.404       .  A
C499        C505   1.368       .  A
C500        C743   1.416       .  A
C500        C508   1.365       .  A
C501        N502   1.351       .  A
C501        H514   1.078       .  S
N502        C749   1.361       .  A
N502        C723   1.430       .  S
C503        N748   1.359   1_554  A
C503        H504   1.083       .  S
C505        N506   1.359       .  A
C505        H515   1.083       .  S
N506        C753   1.355       .  A
N506        C731   1.429       .  S
C507        N752   1.353   1_554  A
C507        H513   1.081       .  S
C508        N755   1.356       .  A
C508        H510   1.083       .  S
N509        C754   1.359       .  A
N509        C511   1.366   1_556  A
N509        C974   1.445       .  S
C511        H512   1.082       .  S
C516        C518   1.550       .  S
C516        C520   1.539       .  S
C516        C519   1.549       .  S
C516        C736   1.532       .  S
C517        C521   1.540       .  S
C517        C523   1.518       .  S
C517        C522   1.543       .  S
C517        C737   1.526       .  S
C518        C526   1.379       .  A
C518        C521   1.410       .  A
C519        C530   1.379       .  A
C519        C522   1.408       .  A
C520        C534   1.379       .  A
C520        C523   1.400       .  A
C521        C524   1.377       .  A
C522        C528   1.380       .  A
C523        C531   1.356       .  A
C524        N525   1.360       .  A
C524        H537   1.083       .  S
N525        C526   1.360       .  A
N525        C711   1.440       .  S
C526        H527   1.078       .  S
C528        N529   1.363       .  A
C528        H538   1.081       .  S
N529        C530   1.362       .  A
N529        C720   1.447       .  S
C530        H536   1.083       .  S
C531        N532   1.354       .  A
C531        H533   1.081       .  S
N532        C534   1.361       .  A
N532        C715   1.431       .  S
C534        H535   1.083       .  S
N539        N540   1.327       .  A
N539        N545   1.314       .  A
N539       Mn568   2.249       .  S
N540        C547   1.364       .  A
N541        N543   1.305       .  A
N541        N542   1.318       .  A
N541       Mn557   2.130       .  S
N542        C548   1.346       .  A
N543        N544   1.320       .  A
N543       Mn568   2.204       .  S
N544        C548   1.354       .  A
N545        N546   1.305       .  A
N545       Mn557   2.156       .  S
N546        C547   1.343       .  A
C547        C732   1.478       .  S
C548        C692   1.464       .  S
N549       N1047   1.316       .  A
N549        N550   1.347       .  A
N549       Mn579   2.280   1_545  S
N551        N552   1.323       .  A
N551        N553   1.318   1_455  A
N552        C559   1.346       .  A
N553        N554   1.327       .  A
N553      Mn1563   2.209       .  S
N554        C559   1.351   1_655  A
N555       N1041   1.309       .  A
N555        N556   1.323       .  A
N555       Mn557   2.110       .  S
N556       C1542   1.329       .  A
Mn557     Cl1565   2.492       .  S
C558       N1540   1.336       .  A
C558        C706   1.434       .  S
C559        C699   1.483       .  S
N560        N561   1.316       .  A
N560        N566   1.314       .  A
N560      Mn1552   2.183       .  S
N561        C569   1.349       .  A
N562       N1056   1.312       .  A
N562        N563   1.309       .  A
N562       Mn826   2.223   1_544  S
N563        C570   1.339       .  A
N564       N1054   1.315       .  A
N564        N565   1.331       .  A
N564       Mn814   2.287   1_556  S
N565       C1062   1.346       .  A
N566        N567   1.317       .  A
N567        C569   1.350       .  A
Mn568      N1544   2.238   1_455  S
Mn568       N810   2.256       .  S
Mn568     Cl1565   2.671       .  S
C569        C724   1.453       .  S
C570       N1057   1.329       .  A
C570        C707   1.445       .  S
N571        N572   1.317       .  A
N571        N577   1.316       .  A
N571       Mn579   2.180       .  S
N572        C582   1.343       .  A
N573        N574   1.324       .  A
N573        N575   1.318       .  A
N573       Mn580   2.265       .  S
N574        C583   1.357       .  A
N575        N576   1.325       .  A
N575       Mn579   2.234       .  S
N576        C583   1.355       .  A
N577        N578   1.332       .  A
N577       Mn580   2.244       .  S
N578        C582   1.358       .  A
Mn579      N1537   2.213       .  S
Mn580       N808   2.217   1_565  S
Cl581     Mn1541   2.517       .  S
Cl581     Mn1552   2.539       .  S
C582        C727   1.499       .  S
C583        C695   1.492       .  S
N584        N585   1.321       .  A
N584        N590   1.317       .  A
N584       Mn613   2.214       .  S
N585        C592   1.353       .  A
N586        N588   1.316       .  A
N586        N587   1.332       .  A
N586       Mn602   2.229       .  S
N587        C593   1.359       .  A
N588        N589   1.318       .  A
N588       Mn613   2.197       .  S
N589        C593   1.346       .  A
N590        N591   1.324       .  A
N590       Mn602   2.264       .  S
N591        C592   1.357       .  A
C592        C719   1.486       .  S
C593        C679   1.499       .  S
N594       N1092   1.316       .  A
N594        N595   1.332       .  A
N594       Mn624   2.288   1_545  S
N596        N597   1.325       .  A
N596        N598   1.315   1_455  A
N597        C604   1.349       .  A
N598        N599   1.324       .  A
N598      Mn1608   2.208       .  S
N599        C604   1.343   1_655  A
N600       N1086   1.312       .  A
N600        N601   1.306       .  A
N600       Mn602   2.219   1_655  S
N601       C1587   1.338       .  A
Mn602     Cl1610   2.639       .  S
C603       N1585   1.330       .  A
C603        C710   1.443       .  S
C604        C688   1.479       .  S
N605        N606   1.328       .  A
N605        N611   1.322       .  A
N605      Mn1597   2.278       .  S
N606        C614   1.354       .  A
N607       N1101   1.311       .  A
N607        N608   1.323       .  A
N607       Mn625   2.117       .  S
N608        C615   1.331       .  A
N609       N1099   1.317       .  A
N609        N610   1.346       .  A
N609       Mn613   2.279       .  S
N610       C1107   1.332       .  A
N611        N612   1.319       .  A
N612        C614   1.344       .  A
Mn613      N1589   2.199   1_455  S
Mn613     Cl1610   2.593       .  S
C614        C712   1.483       .  S
C615       N1102   1.337       .  A
C615        C703   1.442       .  S
N616        N617   1.317       .  A
N616        N622   1.305       .  A
N616       Mn624   2.293       .  S
N617        C627   1.351       .  A
N618        N619   1.308       .  A
N618        N620   1.313       .  A
N618       Mn625   2.186       .  S
N619        C628   1.345       .  A
N620        N621   1.324       .  A
N620       Mn624   2.328       .  S
N621        C628   1.360       .  A
N622        N623   1.314       .  A
N622       Mn625   2.166       .  S
N623        C627   1.348       .  A
Mn624      N1582   2.298       .  S
Cl626     Mn1586   2.451       .  S
Cl626     Mn1597   2.668       .  S
C627        C716   1.453       .  S
C628        C684   1.472       .  S
C629        C631   1.553       .  S
C629        C633   1.561       .  S
C629        C632   1.552       .  S
C629        C675   1.532       .  S
C630        C634   1.535       .  S
C630        C636   1.541       .  S
C630        C635   1.515       .  S
C630        C678   1.519       .  S
C631        C639   1.386       .  A
C631        C634   1.405       .  A
C632        C643   1.390       .  A
C632        C635   1.398       .  A
C633        C647   1.389       .  A
C633        C636   1.410       .  A
C634        C637   1.376       .  A
C635        C641   1.355       .  A
C636        C644   1.380       .  A
C637        N638   1.359       .  A
C637        H650   1.083       .  S
N638        C639   1.365       .  A
N638        C700   1.447       .  S
C639        H640   1.082       .  S
C641        N642   1.352       .  A
C641        H651   1.082       .  S
N642        C643   1.367       .  A
N642        C691   1.439       .  S
C643        H649   1.082       .  S
C644        N645   1.361       .  A
C644        H646   1.081       .  S
N645        C647   1.366       .  A
N645        C696   1.454       .  S
C647        H648   1.083       .  S
C652        C654   1.547       .  S
C652        C656   1.531       .  S
C652        C655   1.560       .  S
C652        C923   1.525       .  S
C653        C657   1.541       .  S
C653        C659   1.532       .  S
C653        C658   1.539       .  S
C653        C676   1.534       .  S
C654        C662   1.381       .  A
C654        C657   1.408       .  A
C655        C666   1.397       .  A
C655        C658   1.410       .  A
C656        C670   1.373       .  A
C656        C659   1.400       .  A
C657        C660   1.376       .  A
C658        C664   1.367       .  A
C659        C667   1.370       .  A
C660        N661   1.359       .  A
C660        H673   1.083       .  S
N661        C662   1.363       .  A
N661        C687   1.442       .  S
C662        H663   1.082       .  S
C664        N665   1.357       .  A
C664        H674   1.083       .  S
N665        C666   1.369       .  A
N665        C680   1.447       .  S
C666        H672   1.082       .  S
C667        N668   1.358       .  A
C667        H669   1.083       .  S
N668        C670   1.356       .  A
N668        C683   1.431       .  S
C670        H671   1.081       .  S
C675        C676   1.242       .  T
C677        C898   1.517       .  S
C677        C678   1.234       .  T
C679        C680   1.353       .  D
C679        H681   1.085       .  S
C680        H682   1.087       .  S
C683        C684   1.349       .  D
C683        H685   1.087       .  S
C684        H686   1.084       .  S
C687        C688   1.344       .  D
C687        H689   1.087       .  S
C688        H690   1.086       .  S
C691        C692   1.351       .  D
C691        H693   1.087       .  S
C692        H694   1.084       .  S
C695        C696   1.355       .  D
C695        H697   1.085       .  S
C696        H698   1.087       .  S
C699        C700   1.346       .  D
C699        H701   1.085       .  S
C700        H702   1.087       .  S
C703        C704   1.207       .  T
C705        C706   1.197       .  T
C707        C708   1.207       .  T
C709        C710   1.208       .  T
C711        C712   1.350       .  D
C711        H713   1.087       .  S
C712        H714   1.085       .  S
C715        C716   1.343       .  D
C715        H717   1.087       .  S
C716        H718   1.084       .  S
C719        C720   1.351       .  D
C719        H721   1.085       .  S
C720        H722   1.087       .  S
C723        C724   1.344       .  D
C723        H725   1.086       .  S
C724        H726   1.085       .  S
C727        C728   1.352       .  D
C727        H729   1.084       .  S
C728        N755   1.445       .  S
C728        H976   1.087       .  S
H730        C974   1.087       .  S
C731        C732   1.353       .  D
C731        H733   1.087       .  S
C732        H734   1.085       .  S
C735        C736   1.242       .  T
C737        C738   1.239       .  T
C739        C741   1.541       .  S
C739        C743   1.569       .  S
C739        C742   1.534       .  S
C739        C984   1.529       .  S
C740        C744   1.534       .  S
C740        C746   1.544       .  S
C740        C745   1.540       .  S
C740        C981   1.539       .  S
C741        C749   1.381       .  A
C742        C753   1.375       .  A
C743        C757   1.398       .  A
C744        C747   1.372       .  A
C745        C751   1.372       .  A
C746        C754   1.368       .  A
C747        N748   1.356       .  A
C747        H760   1.083       .  S
N748        C969   1.432       .  S
C749        H750   1.082       .  S
C751        N752   1.361       .  A
C751        H761   1.083       .  S
N752        C977   1.428       .  S
C753        H759   1.080       .  S
C754        H756   1.083       .  S
N755        C757   1.370       .  A
C757        H758   1.082       .  S
C762        C764   1.564       .  S
C762        C766   1.551       .  S
C762        C765   1.560       .  S
C762        C982   1.538       .  S
C763        C767   1.559       .  S
C763        C769   1.525       .  S
C763        C768   1.548       .  S
C763        C983   1.529       .  S
C764        C772   1.396       .  A
C764        C767   1.410       .  A
C765        C776   1.389       .  A
C765        C768   1.405       .  A
C766        C780   1.392       .  A
C766        C769   1.398       .  A
C767        C770   1.390       .  A
C768        C774   1.389       .  A
C769        C777   1.367       .  A
C770        N771   1.368       .  A
C770        H783   1.081       .  S
N771        C772   1.367       .  A
N771        C957   1.463       .  S
C772        H773   1.082       .  S
C774        N775   1.365       .  A
C774        H784   1.080       .  S
N775        C776   1.367       .  A
N775        C966   1.461       .  S
C776        H782   1.082       .  S
C777        N778   1.354       .  A
C777        H779   1.081       .  S
N778        C780   1.367       .  A
N778        C961   1.447       .  S
C780        H781   1.082       .  S
N785        N786   1.325       .  A
N785        N791   1.313   1_554  A
N785       Mn814   2.320       .  S
N786        C793   1.361       .  A
N787        N789   1.306       .  A
N787        N788   1.315       .  A
N787       Mn803   2.167       .  S
N788        C794   1.348       .  A
N789        N790   1.317       .  A
N789       Mn814   2.287   1_556  S
N790        C794   1.350       .  A
N791        N792   1.305       .  A
N791       Mn803   2.184       .  S
N792        C793   1.343   1_556  A
C793        C978   1.470       .  S
C794        C938   1.451       .  S
N795       N1293   1.316       .  A
N795        N796   1.345       .  A
N795       Mn825   2.276   1_545  S
N797        N798   1.322       .  A
N797        N799   1.315   1_455  A
N798        C805   1.348       .  A
N799        N800   1.319   1_655  A
N799      Mn1809   2.174       .  S
N800        C805   1.342       .  A
N801       N1287   1.311       .  A
N801        N802   1.324       .  A
N801       Mn803   2.106       .  S
N802       C1788   1.331       .  A
Mn803     Cl1811   2.498       .  S
C804       N1786   1.343       .  A
C804        C952   1.442       .  S
C805        C945   1.464       .  S
N806        N807   1.322       .  A
N806        N812   1.318   1_556  A
N806      Mn1798   2.260       .  S
N807        C815   1.352   1_556  A
N808       N1302   1.315       .  A
N808        N809   1.309       .  A
N809        C816   1.339       .  A
N810       N1300   1.315       .  A
N810        N811   1.348       .  A
N811       C1308   1.343       .  A
N812        N813   1.318       .  A
N813        C815   1.343       .  A
Mn814      N1790   2.296   1_455  S
Mn814     Cl1811   2.680   1_554  S
C815        C970   1.463       .  S
C816       N1303   1.329       .  A
C816        C953   1.442       .  S
N817        N818   1.315       .  A
N817        N823   1.316       .  A
N817       Mn825   2.185       .  S
N818        C828   1.344       .  A
N819        N820   1.322       .  A
N819        N821   1.317       .  A
N819       Mn826   2.262       .  S
N820        C829   1.355       .  A
N821        N822   1.322       .  A
N821       Mn825   2.212       .  S
N822        C829   1.353       .  A
N823        N824   1.332   1_556  A
N823       Mn826   2.232       .  S
N824        C828   1.361   1_554  A
Mn825      N1783   2.190       .  S
Cl827     Mn1787   2.568       .  S
Cl827     Mn1798   2.582       .  S
C828        C973   1.496   1_556  S
C829        C941   1.482       .  S
N830        N831   1.328       .  A
N830        N836   1.317       .  A
N830       Mn859   2.235       .  S
N831        C838   1.357       .  A
N832        N834   1.316       .  A
N832        N833   1.332       .  A
N832       Mn848   2.240       .  S
N833        C839   1.361       .  A
N834        N835   1.318       .  A
N834       Mn859   2.195       .  S
N835        C839   1.346       .  A
N836        N837   1.327       .  A
N836       Mn848   2.279       .  S
N837        C838   1.359       .  A
C838        C965   1.505       .  S
C839        C925   1.501       .  S
N840       N1338   1.314       .  A
N840        N841   1.347       .  A
N840       Mn870   2.248   1_545  S
N842        N843   1.323       .  A
N842        N844   1.317       .  A
N843        C850   1.349       .  A
N844        N845   1.321       .  A
N844      Mn1854   2.311   1_455  S
N845        C850   1.343       .  A
N846       N1332   1.313       .  A
N846        N847   1.308       .  A
N846       Mn848   2.219   1_655  S
N847       C1833   1.338       .  A
Mn848     Cl1856   2.635       .  S
C849       N1831   1.328       .  A
C849        C956   1.433       .  S
C850        C934   1.469       .  S
N851        N852   1.334       .  A
N851        N857   1.321       .  A
N851      Mn1843   2.346       .  S
N852        C860   1.361       .  A
N853       N1347   1.306       .  A
N853        N854   1.323       .  A
N853       Mn871   2.122       .  S
N854        C861   1.329       .  A
N855       N1345   1.318       .  A
N855        N856   1.346       .  A
N855       Mn859   2.277       .  S
N856       C1353   1.333       .  A
N857        N858   1.329       .  A
N858        C860   1.351       .  A
Mn859      N1835   2.203       .  S
Mn859     Cl1856   2.603       .  S
C860        C958   1.517       .  S
C861       N1348   1.341       .  A
C861        C949   1.442       .  S
N862        N863   1.323       .  A
N862        N868   1.304       .  A
N862       Mn870   2.221       .  S
N863        C873   1.356       .  A
N864        N865   1.308       .  A
N864        N866   1.314       .  A
N864       Mn871   2.169       .  S
N865        C874   1.347       .  A
N866        N867   1.326       .  A
N866       Mn870   2.231       .  S
N867        C874   1.362       .  A
N868        N869   1.321       .  A
N868       Mn871   2.144       .  S
N869        C873   1.348       .  A
Mn870      N1828   2.212       .  S
Cl872     Mn1832   2.571       .  S
Cl872     Mn1843   2.668       .  S
C873        C962   1.477       .  S
C874        C930   1.474       .  S
C875        C877   1.536       .  S
C875        C879   1.548       .  S
C875        C878   1.540       .  S
C875        C921   1.524       .  S
C876        C880   1.535       .  S
C876        C882   1.545       .  S
C876        C881   1.517       .  S
C876        C924   1.526       .  S
C877        C885   1.371       .  A
C877        C880   1.407       .  A
C878        C889   1.381       .  A
C878        C881   1.400       .  A
C879        C893   1.379       .  A
C879        C882   1.409       .  A
C880        C883   1.373       .  A
C881        C887   1.354       .  A
C882        C890   1.377       .  A
C883        N884   1.360       .  A
C883        H896   1.083       .  S
N884        C885   1.354       .  A
N884        C946   1.431       .  S
C885        H886   1.082       .  S
C887        N888   1.354       .  A
C887        H897   1.082       .  S
N888        C889   1.361       .  A
N888        C937   1.430       .  S
C889        H895   1.083       .  S
C890        N891   1.364       .  A
C890        H892   1.081       .  S
N891        C893   1.363       .  A
N891        C942   1.447       .  S
C893        H894   1.083       .  S
C898        C900   1.539       .  S
C898        C902   1.532       .  S
C898        C901   1.559       .  S
C899        C903   1.537       .  S
C899        C905   1.532       .  S
C899        C904   1.541       .  S
C899        C922   1.525       .  S
C900        C908   1.374       .  A
C900        C903   1.403       .  A
C901        C912   1.397       .  A
C901        C904   1.409       .  A
C902        C916   1.376       .  A
C902        C905   1.400       .  A
C903        C906   1.377       .  A
C904        C910   1.369       .  A
C905        C913   1.369       .  A
C906        N907   1.359       .  A
C906        H919   1.082       .  S
N907        C908   1.360       .  A
N907        C933   1.438       .  S
C908        H909   1.082       .  S
C910        N911   1.358       .  A
C910        H920   1.083       .  S
N911        C912   1.369       .  A
N911        C926   1.449       .  S
C912        H918   1.082       .  S
C913        N914   1.358       .  A
C913        H915   1.083       .  S
N914        C916   1.357       .  A
N914        C929   1.431       .  S
C916        H917   1.081       .  S
C921        C922   1.237       .  T
C923        C924   1.238   1_554  T
C925        C926   1.355       .  D
C925        H927   1.085       .  S
C926        H928   1.087       .  S
C929        C930   1.349       .  D
C929        H931   1.087       .  S
C930        H932   1.085       .  S
C933        C934   1.342       .  D
C933        H935   1.087       .  S
C934        H936   1.085       .  S
C937        C938   1.342       .  D
C937        H939   1.087       .  S
C938        H940   1.085       .  S
C941        C942   1.350       .  D
C941        H943   1.084       .  S
C942        H944   1.087       .  S
C945        C946   1.336       .  D
C945        H947   1.086       .  S
C946        H948   1.087       .  S
C949        C950   1.207       .  T
C951        C952   1.205       .  T
C953        C954   1.205       .  T
C955        C956   1.200       .  T
C957        C958   1.364       .  D
C957        H959   1.086       .  S
C958        H960   1.085       .  S
C961        C962   1.355       .  D
C961        H963   1.086       .  S
C962        H964   1.084       .  S
C965        C966   1.359       .  D
C965        H967   1.085       .  S
C966        H968   1.086       .  S
C969        C970   1.338   1_556  D
C969        H971   1.087       .  S
C970        H972   1.086       .  S
C973        C974   1.354   1_554  D
C973        H975   1.085       .  S
C977        C978   1.353   1_556  D
C977        H979   1.087       .  S
C978        H980   1.084       .  S
C981        C982   1.246       .  T
C983        C984   1.241       .  T
C985        C987   1.542       .  S
C985        C989   1.574       .  S
C985        C988   1.536       .  S
C985       C1230   1.536       .  S
C986        C990   1.542       .  S
C986        C992   1.534       .  S
C986        C991   1.525       .  S
C986       C1227   1.522       .  S
C987        C995   1.375       .  A
C987       C1236   1.407   1_554  A
C988        C999   1.375       .  A
C988       C1237   1.399   1_554  A
C989       C1003   1.394       .  A
C989       C1238   1.411   1_554  A
C990       C1233   1.408       .  A
C990        C993   1.380       .  A
C991       C1234   1.398       .  A
C991        C997   1.365       .  A
C992       C1235   1.410       .  A
C992       C1000   1.372       .  A
C993        N994   1.362       .  A
C993       H1006   1.083       .  S
N994       C1241   1.357       .  A
N994       C1215   1.438       .  S
C995       N1240   1.356   1_554  A
C995        H996   1.081       .  S
C997        N998   1.357       .  A
C997       H1007   1.082       .  S
N998       C1245   1.360       .  A
N998       C1223   1.436       .  S
C999       N1244   1.358   1_554  A
C999       H1005   1.083       .  S
C1000      N1247   1.358       .  A
C1000      H1002   1.080       .  S
N1001      C1246   1.356       .  A
N1001      C1003   1.373   1_556  A
N1001      C1466   1.453       .  S
C1003      H1004   1.082       .  S
C1008      C1010   1.543       .  S
C1008      C1012   1.537       .  S
C1008      C1011   1.556       .  S
C1008      C1228   1.521       .  S
C1009      C1013   1.537       .  S
C1009      C1015   1.530       .  S
C1009      C1014   1.553       .  S
C1009      C1229   1.537       .  S
C1010      C1018   1.380       .  A
C1010      C1013   1.404       .  A
C1011      C1022   1.393       .  A
C1011      C1014   1.414       .  A
C1012      C1026   1.382       .  A
C1012      C1015   1.400       .  A
C1013      C1016   1.376       .  A
C1014      C1020   1.376       .  A
C1015      C1023   1.367       .  A
C1016      N1017   1.358       .  A
C1016      H1029   1.081       .  S
N1017      C1018   1.363       .  A
N1017      C1203   1.441       .  S
C1018      H1019   1.082       .  S
C1020      N1021   1.364       .  A
C1020      H1030   1.083       .  S
N1021      C1022   1.365       .  A
N1021      C1212   1.451       .  S
C1022      H1028   1.082       .  S
C1023      N1024   1.355       .  A
C1023      H1025   1.083       .  S
N1024      C1026   1.359       .  A
N1024      C1207   1.433       .  S
C1026      H1027   1.081       .  S
N1031      N1032   1.318       .  A
N1031      N1037   1.307       .  A
N1031     Mn1060   2.149       .  S
N1032      C1039   1.351       .  A
N1033      N1035   1.313       .  A
N1033      N1034   1.324       .  A
N1033     Mn1049   2.217       .  S
N1034      C1040   1.359       .  A
N1035      N1036   1.309       .  A
N1035     Mn1060   2.176       .  S
N1036      C1040   1.347       .  A
N1037      N1038   1.319       .  A
N1037     Mn1049   2.197       .  S
N1038      C1039   1.351       .  A
C1039      C1224   1.464       .  S
C1040      C1184   1.478       .  S
N1041      N1042   1.309       .  A
N1041     Mn1071   2.232   1_455  S
N1042      C1542   1.340       .  A
N1043      N1044   1.314       .  A
N1043      N1045   1.318       .  A
N1043     Mn1541   2.184       .  S
N1044      C1051   1.347       .  A
N1045      N1046   1.318       .  A
N1046      C1051   1.350       .  A
N1047      N1048   1.351       .  A
N1047     Mn1049   2.263       .  S
Mn1049     N1535   2.211   1_545  S
C1050      N1534   1.332   1_545  A
C1050      C1198   1.436       .  S
C1051      C1191   1.454       .  S
N1052      N1053   1.321       .  A
N1052      N1058   1.324       .  A
N1053      C1061   1.352       .  A
N1054      N1055   1.334       .  A
N1054     Mn1318   2.331   1_455  S
N1055      C1062   1.341       .  A
N1056      N1057   1.322       .  A
N1056     Mn1306   2.100   1_554  S
N1058      N1059   1.324       .  A
N1058     Mn1564   2.224   1_545  S
N1059      C1061   1.356       .  A
Mn1060     N1302   2.097       .  S
C1061      C1216   1.478       .  S
C1062      C1199   1.432   1_556  S
N1063      N1064   1.327       .  A
N1063      N1069   1.316       .  A
N1063     Mn1071   2.283       .  S
N1064      C1074   1.360       .  A
N1065      N1066   1.315       .  A
N1065      N1067   1.316       .  A
N1065     Mn1072   2.184       .  S
N1066      C1075   1.343       .  A
N1067      N1068   1.333       .  A
N1067     Mn1071   2.239       .  S
N1068      C1075   1.364       .  A
N1069      N1070   1.321       .  A
N1069     Mn1072   2.203       .  S
N1070      C1074   1.349       .  A
Mn1071    Cl1565   2.644   1_655  S
Mn1072     N1300   2.277   1_655  S
Mn1072     N1550   2.185       .  S
Mn1072    Cl1565   2.588   1_655  S
Cl1073    Mn1563   2.589       .  S
Cl1073    Mn1564   2.646       .  S
C1074      C1219   1.489       .  S
C1075      C1187   1.504       .  S
N1076      N1077   1.334       .  A
N1076      N1082   1.315       .  A
N1076     Mn1105   2.235       .  S
N1077      C1084   1.366       .  A
N1078      N1080   1.316       .  A
N1078      N1079   1.320       .  A
N1078     Mn1094   2.195       .  S
N1079      C1085   1.347       .  A
N1080      N1081   1.329       .  A
N1080     Mn1105   2.289       .  S
N1081      C1085   1.362       .  A
N1082      N1083   1.314       .  A
N1082     Mn1094   2.195       .  S
N1083      C1084   1.344       .  A
C1084      C1211   1.504       .  S
C1085      C1171   1.492       .  S
N1086      N1087   1.320       .  A
N1086     Mn1116   2.096       .  S
N1087      C1587   1.328       .  A
N1088      N1089   1.316       .  A
N1088      N1090   1.323       .  A
N1088     Mn1586   2.236       .  S
N1089      C1096   1.346       .  A
N1090      N1091   1.334       .  A
N1091      C1096   1.367       .  A
N1092      N1093   1.334       .  A
N1092     Mn1094   2.340       .  S
Mn1094     N1580   2.221   1_545  S
C1095      N1579   1.342       .  A
C1095      C1202   1.438       .  S
C1096      C1180   1.491       .  S
N1097      N1098   1.319       .  A
N1097      N1103   1.328       .  A
N1098      C1106   1.350       .  A
N1099      N1100   1.350       .  A
N1099     Mn1117   2.259   1_455  S
N1100      C1107   1.345       .  A
N1101      N1102   1.307       .  A
N1101     Mn1105   2.228   1_565  S
N1103      N1104   1.325       .  A
N1103     Mn1609   2.279   1_545  S
N1104      C1106   1.357       .  A
C1106      C1204   1.474       .  S
C1107      C1195   1.437       .  S
N1108      N1109   1.310       .  A
N1108      N1114   1.312       .  A
N1108     Mn1116   2.175       .  S
N1109      C1119   1.347       .  A
N1110      N1111   1.322       .  A
N1110      N1112   1.306       .  A
N1110     Mn1117   2.208       .  S
N1111      C1120   1.354       .  A
N1112      N1113   1.317       .  A
N1112     Mn1116   2.141       .  S
N1113      C1120   1.349       .  A
N1114      N1115   1.325       .  A
N1114     Mn1117   2.222       .  S
N1115      C1119   1.360       .  A
Mn1116    Cl1610   2.501   1_655  S
Mn1117     N1595   2.206       .  S
Mn1117    Cl1610   2.676   1_655  S
Cl1118    Mn1608   2.669       .  S
Cl1118    Mn1609   2.506       .  S
C1119      C1208   1.481       .  S
C1120      C1176   1.469       .  S
C1121      C1123   1.548       .  S
C1121      C1125   1.564       .  S
C1121      C1124   1.543       .  S
C1121      C1167   1.532       .  S
C1122      C1126   1.510       .  S
C1122      C1128   1.548       .  S
C1122      C1127   1.526       .  S
C1122      C1170   1.535       .  S
C1123      C1131   1.386       .  A
C1123      C1126   1.399       .  A
C1124      C1135   1.381       .  A
C1124      C1127   1.406       .  A
C1125      C1139   1.394       .  A
C1125      C1128   1.417       .  A
C1126      C1129   1.351       .  A
C1127      C1133   1.364       .  A
C1128      C1136   1.372       .  A
C1129      N1130   1.346       .  A
C1129      H1142   1.079       .  S
N1130      C1131   1.364       .  A
N1130      C1192   1.428       .  S
C1131      H1132   1.082       .  S
C1133      N1134   1.354       .  A
C1133      H1143   1.083       .  S
N1134      C1135   1.358       .  A
N1134      C1183   1.429       .  S
C1135      H1141   1.080       .  S
C1136      N1137   1.362       .  A
C1136      H1138   1.083       .  S
N1137      C1139   1.367       .  A
N1137      C1188   1.450       .  S
C1139      H1140   1.082       .  S
C1144      C1146   1.558       .  S
C1144      C1148   1.541       .  S
C1144      C1147   1.563       .  S
C1144      C1415   1.547       .  S
C1145      C1149   1.553       .  S
C1145      C1151   1.523       .  S
C1145      C1150   1.538       .  S
C1145      C1168   1.533       .  S
C1146      C1154   1.386       .  A
C1146      C1149   1.414       .  A
C1147      C1158   1.390       .  A
C1147      C1150   1.409       .  A
C1148      C1162   1.380       .  A
C1148      C1151   1.398       .  A
C1149      C1152   1.384       .  A
C1150      C1156   1.376       .  A
C1151      C1159   1.368       .  A
C1152      N1153   1.367       .  A
C1152      H1165   1.082       .  S
N1153      C1154   1.363       .  A
N1153      C1179   1.454       .  S
C1154      H1155   1.082       .  S
C1156      N1157   1.359       .  A
C1156      H1166   1.079       .  S
N1157      C1158   1.369       .  A
N1157      C1172   1.453       .  S
C1158      H1164   1.082       .  S
C1159      N1160   1.357       .  A
C1159      H1161   1.081       .  S
N1160      C1162   1.361       .  A
N1160      C1175   1.438       .  S
C1162      H1163   1.083       .  S
C1167      C1168   1.243       .  T
C1169      C1390   1.533       .  S
C1169      C1170   1.243       .  T
C1171      C1172   1.360       .  D
C1171      H1173   1.084       .  S
C1172      H1174   1.087       .  S
C1175      C1176   1.347       .  D
C1175      H1177   1.087       .  S
C1176      H1178   1.084       .  S
C1179      C1180   1.346       .  D
C1179      H1181   1.086       .  S
C1180      H1182   1.086       .  S
C1183      C1184   1.347       .  D
C1183      H1185   1.087       .  S
C1184      H1186   1.086       .  S
C1187      C1188   1.361       .  D
C1187      H1189   1.085       .  S
C1188      H1190   1.087       .  S
C1191      C1192   1.348       .  D
C1191      H1193   1.085       .  S
C1192      H1194   1.085       .  S
C1195      C1196   1.206       .  T
C1196      C1689   1.410       .  S
C1197      C1198   1.205       .  T
C1197      C1688   1.410   1_545  S
C1199      C1200   1.203       .  T
C1200      C1693   1.409   1_455  S
C1201      C1202   1.204       .  T
C1201      C1692   1.408       .  S
C1203      C1204   1.341       .  D
C1203      H1205   1.087       .  S
C1204      H1206   1.086       .  S
C1207      C1208   1.349       .  D
C1207      H1209   1.087       .  S
C1208      H1210   1.085       .  S
C1211      C1212   1.362       .  D
C1211      H1213   1.085       .  S
C1212      H1214   1.086       .  S
C1215      C1216   1.341       .  D
C1215      H1217   1.086       .  S
C1216      H1218   1.086       .  S
C1219      C1220   1.359       .  D
C1219      H1221   1.084       .  S
C1220      N1247   1.453       .  S
C1220      H1468   1.086       .  S
H1222      C1466   1.086       .  S
C1223      C1224   1.344       .  D
C1223      H1225   1.087       .  S
C1224      H1226   1.085       .  S
C1227      C1228   1.236       .  T
C1229      C1230   1.245       .  T
C1231      C1233   1.543       .  S
C1231      C1235   1.569       .  S
C1231      C1234   1.537       .  S
C1231      C1476   1.536       .  S
C1232      C1236   1.528       .  S
C1232      C1238   1.528       .  S
C1232      C1237   1.517       .  S
C1232      C1473   1.516       .  S
C1233      C1241   1.376       .  A
C1234      C1245   1.379       .  A
C1235      C1249   1.392       .  A
C1236      C1239   1.367       .  A
C1237      C1243   1.359       .  A
C1238      C1246   1.369       .  A
C1239      N1240   1.357       .  A
C1239      H1252   1.083       .  S
N1240      C1461   1.427   1_556  S
C1241      H1242   1.082       .  S
C1243      N1244   1.356       .  A
C1243      H1253   1.081       .  S
N1244      C1469   1.429       .  S
C1245      H1251   1.083       .  S
C1246      H1248   1.080       .  S
N1247      C1249   1.371       .  A
C1249      H1250   1.082       .  S
C1254      C1256   1.536       .  S
C1254      C1258   1.535       .  S
C1254      C1257   1.548       .  S
C1254      C1474   1.515       .  S
C1255      C1259   1.548       .  S
C1255      C1261   1.538       .  S
C1255      C1260   1.555       .  S
C1255      C1475   1.537       .  S
C1256      C1264   1.375       .  A
C1256      C1259   1.402       .  A
C1257      C1268   1.390       .  A
C1257      C1260   1.407       .  A
C1258      C1272   1.382       .  A
C1258      C1261   1.411       .  A
C1259      C1262   1.385       .  A
C1260      C1266   1.380       .  A
C1261      C1269   1.373       .  A
C1262      N1263   1.366       .  A
C1262      H1275   1.082       .  S
N1263      C1264   1.356       .  A
N1263      C1449   1.444       .  S
C1264      H1265   1.083       .  S
C1266      N1267   1.366       .  A
C1266      H1276   1.083       .  S
N1267      C1268   1.364       .  A
N1267      C1458   1.453       .  S
C1268      H1274   1.082       .  S
C1269      N1270   1.353       .  A
C1269      H1271   1.083       .  S
N1270      C1272   1.355       .  A
N1270      C1453   1.434       .  S
C1272      H1273   1.082       .  S
N1277      N1278   1.313       .  A
N1277      N1283   1.305       .  A
N1277     Mn1306   2.127       .  S
N1278      C1285   1.348       .  A
N1279      N1281   1.314       .  A
N1279      N1280   1.325       .  A
N1279     Mn1295   2.230       .  S
N1280      C1286   1.360       .  A
N1281      N1282   1.312       .  A
N1281     Mn1306   2.179       .  S
N1282      C1286   1.346       .  A
N1283      N1284   1.319       .  A
N1283     Mn1295   2.181       .  S
N1284      C1285   1.350       .  A
C1285      C1470   1.454       .  S
C1286      C1430   1.484       .  S
N1287      N1288   1.309       .  A
N1287     Mn1317   2.232   1_455  S
N1288      C1788   1.338       .  A
N1289      N1290   1.316       .  A
N1289      N1291   1.328       .  A
N1289     Mn1787   2.215       .  S
N1290      C1297   1.350       .  A
N1291      N1292   1.319       .  A
N1292      C1297   1.350       .  A
N1293      N1294   1.351       .  A
N1293     Mn1295   2.271       .  S
Mn1295     N1781   2.223   1_545  S
C1296      N1780   1.332   1_545  A
C1296      C1444   1.436       .  S
C1297      C1437   1.457       .  S
N1298      N1299   1.318       .  A
N1298      N1304   1.328       .  A
N1299      C1307   1.350       .  A
N1300      N1301   1.349       .  A
N1301      C1308   1.335       .  A
N1302      N1303   1.322       .  A
N1304      N1305   1.318       .  A
N1304     Mn1810   2.222   1_545  S
N1305      C1307   1.352       .  A
C1307      C1462   1.458       .  S
C1308      C1445   1.436       .  S
N1309      N1310   1.329       .  A
N1309      N1315   1.314       .  A
N1309     Mn1317   2.274       .  S
N1310      C1320   1.362       .  A
N1311      N1312   1.314       .  A
N1311      N1313   1.317       .  A
N1311     Mn1318   2.190       .  S
N1312      C1321   1.342       .  A
N1313      N1314   1.333       .  A
N1313     Mn1317   2.240       .  S
N1314      C1321   1.365       .  A
N1315      N1316   1.319       .  A
N1315     Mn1318   2.189       .  S
N1316      C1320   1.345       .  A
Mn1317    Cl1811   2.593   1_655  S
Mn1318     N1796   2.212   1_556  S
Mn1318    Cl1811   2.535   1_655  S
Cl1319    Mn1809   2.590       .  S
Cl1319    Mn1810   2.646       .  S
C1320      C1465   1.490       .  S
C1321      C1433   1.501       .  S
N1322      N1323   1.333       .  A
N1322      N1328   1.316       .  A
N1322     Mn1351   2.239       .  S
N1323      C1330   1.366       .  A
N1324      N1326   1.316       .  A
N1324      N1325   1.320       .  A
N1324     Mn1340   2.188       .  S
N1325      C1331   1.346       .  A
N1326      N1327   1.328       .  A
N1326     Mn1351   2.295       .  S
N1327      C1331   1.361       .  A
N1328      N1329   1.316       .  A
N1328     Mn1340   2.188       .  S
N1329      C1330   1.344       .  A
C1330      C1457   1.503       .  S
C1331      C1417   1.489       .  S
N1332      N1333   1.322       .  A
N1332     Mn1362   2.100       .  S
N1333      C1833   1.329       .  A
N1334      N1335   1.326       .  A
N1334      N1336   1.330       .  A
N1334     Mn1832   2.245       .  S
N1335      C1342   1.349       .  A
N1336      N1337   1.329       .  A
N1337      C1342   1.354       .  A
N1338      N1339   1.348       .  A
N1338     Mn1340   2.275       .  S
Mn1340     N1826   2.173   1_545  S
C1341      N1825   1.347       .  A
C1341      C1448   1.433       .  S
C1342      C1426   1.496       .  S
N1343      N1344   1.328       .  A
N1343      N1349   1.324       .  A
N1344      C1352   1.359       .  A
N1345      N1346   1.349       .  A
N1345     Mn1363   2.256   1_455  S
N1346      C1353   1.346       .  A
N1347      N1348   1.310       .  A
N1347     Mn1351   2.233   1_565  S
N1349      N1350   1.319       .  A
N1349     Mn1855   2.247   1_545  S
N1350      C1352   1.347       .  A
C1352      C1450   1.478       .  S
C1353      C1441   1.436       .  S
N1354      N1355   1.312       .  A
N1354      N1360   1.312       .  A
N1354     Mn1362   2.179       .  S
N1355      C1365   1.348       .  A
N1356      N1357   1.321       .  A
N1356      N1358   1.306       .  A
N1356     Mn1363   2.208       .  S
N1357      C1366   1.354       .  A
N1358      N1359   1.318       .  A
N1358     Mn1362   2.142       .  S
N1359      C1366   1.350       .  A
N1360      N1361   1.324       .  A
N1360     Mn1363   2.216       .  S
N1361      C1365   1.358       .  A
Mn1362    Cl1856   2.503   1_655  S
Mn1363     N1841   2.191       .  S
Mn1363    Cl1856   2.675   1_655  S
Cl1364    Mn1855   2.485       .  S
Cl1364    Mn1854   2.690       .  S
C1365      C1454   1.479       .  S
C1366      C1422   1.467       .  S
C1367      C1369   1.524       .  S
C1367      C1371   1.545       .  S
C1367      C1370   1.539       .  S
C1367      C1413   1.520       .  S
C1368      C1372   1.533       .  S
C1368      C1374   1.566       .  S
C1368      C1373   1.542       .  S
C1368      C1416   1.547       .  S
C1369      C1377   1.368       .  A
C1369      C1372   1.400       .  A
C1370      C1381   1.381       .  A
C1370      C1373   1.408       .  A
C1371      C1385   1.384       .  A
C1371      C1374   1.416       .  A
C1372      C1375   1.372       .  A
C1373      C1379   1.372       .  A
C1374      C1382   1.383       .  A
C1375      N1376   1.358       .  A
C1375      H1388   1.082       .  S
N1376      C1377   1.351       .  A
N1376      C1438   1.424       .  S
C1377      H1378   1.083       .  S
C1379      N1380   1.359       .  A
C1379      H1389   1.083       .  S
N1380      C1381   1.359       .  A
N1380      C1429   1.438       .  S
C1381      H1387   1.081       .  S
C1382      N1383   1.368       .  A
C1382      H1384   1.083       .  S
N1383      C1385   1.361       .  A
N1383      C1434   1.451       .  S
C1385      H1386   1.082       .  S
C1390      C1392   1.561       .  S
C1390      C1394   1.538       .  S
C1390      C1393   1.560       .  S
C1391      C1395   1.551       .  S
C1391      C1397   1.522       .  S
C1391      C1396   1.533       .  S
C1391      C1414   1.519       .  S
C1392      C1400   1.389       .  A
C1392      C1395   1.412       .  A
C1393      C1404   1.390       .  A
C1393      C1396   1.404       .  A
C1394      C1408   1.380       .  A
C1394      C1397   1.394       .  A
C1395      C1398   1.383       .  A
C1396      C1402   1.374       .  A
C1397      C1405   1.367       .  A
C1398      N1399   1.363       .  A
C1398      H1411   1.083       .  S
N1399      C1400   1.364       .  A
N1399      C1425   1.452       .  S
C1400      H1401   1.078       .  S
C1402      N1403   1.358       .  A
C1402      H1412   1.080       .  S
N1403      C1404   1.369       .  A
N1403      C1418   1.451       .  S
C1404      H1410   1.082       .  S
C1405      N1406   1.358       .  A
C1405      H1407   1.081       .  S
N1406      C1408   1.360       .  A
N1406      C1421   1.437       .  S
C1408      H1409   1.083       .  S
C1413      C1414   1.235       .  T
C1415      C1416   1.251   1_554  T
C1417      C1418   1.359       .  D
C1417      H1419   1.084       .  S
C1418      H1420   1.087       .  S
C1421      C1422   1.345       .  D
C1421      H1423   1.087       .  S
C1422      H1424   1.084       .  S
C1425      C1426   1.354       .  D
C1425      H1427   1.087       .  S
C1426      H1428   1.085       .  S
C1429      C1430   1.352       .  D
C1429      H1431   1.087       .  S
C1430      H1432   1.085       .  S
C1433      C1434   1.364       .  D
C1433      H1435   1.085       .  S
C1434      H1436   1.086       .  S
C1437      C1438   1.335       .  D
C1437      H1439   1.086       .  S
C1438      H1440   1.087       .  S
C1441      C1442   1.206       .  T
C1442      C1935   1.411       .  S
C1443      C1444   1.206       .  T
C1443      C1934   1.411   1_545  S
C1445      C1446   1.204       .  T
C1446      C1939   1.408   1_455  S
C1447      C1448   1.204       .  T
C1447      C1938   1.410   1_655  S
C1449      C1450   1.340       .  D
C1449      H1451   1.087       .  S
C1450      H1452   1.086       .  S
C1453      C1454   1.348       .  D
C1453      H1455   1.087       .  S
C1454      H1456   1.086       .  S
C1457      C1458   1.363       .  D
C1457      H1459   1.085       .  S
C1458      H1460   1.087       .  S
C1461      C1462   1.336   1_554  D
C1461      H1463   1.087       .  S
C1462      H1464   1.086       .  S
C1465      C1466   1.362       .  D
C1465      H1467   1.084       .  S
C1469      C1470   1.341       .  D
C1469      H1471   1.087       .  S
C1470      H1472   1.084       .  S
C1473      C1474   1.232       .  T
C1475      C1476   1.245       .  T
C1477      C1479   1.542       .  S
C1477      C1481   1.562       .  S
C1477      C1480   1.549       .  S
C1477      C1722   1.533       .  S
C1478      C1482   1.541       .  S
C1478      C1484   1.539       .  S
C1478      C1483   1.557       .  S
C1478      C1719   1.531       .  S
C1479      C1487   1.376       .  A
C1479      C1728   1.401   1_554  A
C1480      C1491   1.381       .  A
C1480      C1729   1.406   1_554  A
C1481      C1495   1.398       .  A
C1481      C1730   1.409   1_554  A
C1482      C1725   1.397       .  A
C1482      C1485   1.384       .  A
C1483      C1726   1.405       .  A
C1483      C1489   1.384       .  A
C1484      C1727   1.406       .  A
C1484      C1492   1.369       .  A
C1485      N1486   1.362       .  A
C1485      H1498   1.083       .  S
N1486      C1733   1.363       .  A
N1486      C1707   1.449       .  S
C1487      N1732   1.360   1_554  A
C1487      H1488   1.082       .  S
C1489      N1490   1.369       .  A
C1489      H1499   1.083       .  S
N1490      C1737   1.365       .  A
N1490      C1715   1.461       .  S
C1491      N1736   1.362   1_554  A
C1491      H1497   1.082       .  S
C1492      N1739   1.357       .  A
C1492      H1494   1.083       .  S
N1493      C1738   1.357   1_554  A
N1493      C1495   1.369       .  A
N1493      C1958   1.448   1_554  S
C1495      H1496   1.082       .  S
C1500      C1502   1.551       .  S
C1500      C1504   1.551       .  S
C1500      C1503   1.539       .  S
C1500      C1720   1.530       .  S
C1501      C1505   1.545       .  S
C1501      C1507   1.519       .  S
C1501      C1506   1.548       .  S
C1501      C1721   1.534       .  S
C1502      C1510   1.383       .  A
C1502      C1505   1.411       .  A
C1503      C1514   1.381       .  A
C1503      C1506   1.406       .  A
C1504      C1518   1.386       .  A
C1504      C1507   1.401       .  A
C1505      C1508   1.378       .  A
C1506      C1512   1.378       .  A
C1507      C1515   1.359       .  A
C1508      N1509   1.360       .  A
C1508      H1521   1.083       .  S
N1509      C1510   1.364       .  A
N1509      C1695   1.445       .  S
C1510      H1511   1.082       .  S
C1512      N1513   1.364       .  A
C1512      H1522   1.083       .  S
N1513      C1514   1.360       .  A
N1513      C1704   1.445       .  S
C1514      H1520   1.082       .  S
C1515      N1516   1.353       .  A
C1515      H1517   1.081       .  S
N1516      C1518   1.366       .  A
N1516      C1699   1.438       .  S
C1518      H1519   1.082       .  S
N1523      N1524   1.344       .  A
N1523      N1529   1.311       .  A
N1523     Mn1552   2.311       .  S
N1524      C1531   1.381       .  A
N1525      N1527   1.308       .  A
N1525      N1526   1.342       .  A
N1525     Mn1541   2.306       .  S
N1526      C1532   1.378       .  A
N1527      N1528   1.305       .  A
N1527     Mn1552   2.107       .  S
N1528      C1532   1.333       .  A
N1529      N1530   1.309       .  A
N1529     Mn1541   2.126       .  S
N1530      C1531   1.334       .  A
C1531      C1716   1.516       .  S
C1532      C1676   1.508       .  S
N1533      N1534   1.347       .  A
N1533     Mn1563   2.286       .  S
N1535      N1536   1.325       .  A
N1535      N1537   1.316       .  A
N1536      C1543   1.349       .  A
N1537      N1538   1.329       .  A
N1538      C1543   1.352       .  A
N1539      N1540   1.325       .  A
N1539     Mn1541   2.158       .  S
C1542      C1690   1.441       .  S
C1543      C1683   1.495       .  S
N1544      N1545   1.329       .  A
N1544      N1550   1.316       .  A
N1545      C1553   1.352       .  A
N1546      N1547   1.310       .  A
N1546     Mn1810   2.219   1_544  S
N1547      C1554   1.338   1_655  A
N1548      N1549   1.328       .  A
N1548     Mn1798   2.302       .  S
N1550      N1551   1.325       .  A
N1551      C1553   1.346       .  A
Mn1552     N1794   2.176       .  S
C1553      C1708   1.492       .  S
C1554      C1691   1.442       .  S
N1555      N1556   1.318       .  A
N1555      N1561   1.315       .  A
N1555     Mn1563   2.201       .  S
N1556      C1566   1.347       .  A
N1557      N1558   1.325       .  A
N1557      N1559   1.319       .  A
N1557     Mn1564   2.286       .  S
N1558      C1567   1.357       .  A
N1559      N1560   1.325       .  A
N1559     Mn1563   2.224       .  S
N1560      C1567   1.354       .  A
N1561      N1562   1.332       .  A
N1561     Mn1564   2.229       .  S
N1562      C1566   1.361       .  A
Mn1564     N1792   2.232   1_665  S
C1566      C1711   1.502       .  S
C1567      C1679   1.494       .  S
N1568      N1569   1.331       .  A
N1568      N1574   1.312       .  A
N1568     Mn1597   2.259       .  S
N1569      C1576   1.364       .  A
N1570      N1572   1.305       .  A
N1570      N1571   1.313       .  A
N1570     Mn1586   2.118       .  S
N1571      C1577   1.343       .  A
N1572      N1573   1.324       .  A
N1572     Mn1597   2.218       .  S
N1573      C1577   1.357       .  A
N1574      N1575   1.314       .  A
N1574     Mn1586   2.163       .  S
N1575      C1576   1.345       .  A
C1576      C1703   1.490       .  S
C1577      C1663   1.465       .  S
N1578      N1579   1.350   1_565  A
N1578     Mn1608   2.254       .  S
N1580      N1581   1.324       .  A
N1580      N1582   1.315       .  A
N1581      C1588   1.349       .  A
N1582      N1583   1.319       .  A
N1583      C1588   1.338       .  A
N1584      N1585   1.317       .  A
N1584     Mn1586   2.130       .  S
C1587      C1694   1.444       .  S
C1588      C1672   1.464       .  S
N1589      N1590   1.326       .  A
N1589      N1595   1.316       .  A
N1590      C1598   1.351       .  A
N1591      N1592   1.324       .  A
N1591     Mn1609   2.106       .  S
N1592      C1599   1.330       .  A
N1593      N1594   1.334       .  A
N1593     Mn1597   2.299       .  S
N1595      N1596   1.323       .  A
N1596      C1598   1.345       .  A
C1598      C1696   1.481       .  S
C1599      C1687   1.443       .  S
N1600      N1601   1.322       .  A
N1600      N1606   1.305       .  A
N1600     Mn1608   2.214       .  S
N1601      C1611   1.355       .  A
N1602      N1603   1.305       .  A
N1602      N1604   1.313       .  A
N1602     Mn1609   2.169       .  S
N1603      C1612   1.345       .  A
N1604      N1605   1.328       .  A
N1604     Mn1608   2.224       .  S
N1605      C1612   1.362       .  A
N1606      N1607   1.316       .  A
N1606     Mn1609   2.129       .  S
N1607      C1611   1.346       .  A
C1611      C1700   1.466       .  S
C1612      C1668   1.472       .  S
C1613      C1615   1.545       .  S
C1613      C1617   1.556       .  S
C1613      C1616   1.549       .  S
C1613      C1659   1.518       .  S
C1614      C1618   1.540       .  S
C1614      C1620   1.548       .  S
C1614      C1619   1.546       .  S
C1614      C1662   1.519       .  S
C1615      C1623   1.389       .  A
C1615      C1618   1.393       .  A
C1616      C1627   1.392       .  A
C1616      C1619   1.400       .  A
C1617      C1631   1.391       .  A
C1617      C1620   1.419       .  A
C1618      C1621   1.385       .  A
C1619      C1625   1.379       .  A
C1620      C1628   1.386       .  A
C1621      N1622   1.362       .  A
C1621      H1634   1.083       .  S
N1622      C1623   1.364       .  A
N1622      C1684   1.454       .  S
C1623      H1624   1.082       .  S
C1625      N1626   1.364       .  A
C1625      H1635   1.083       .  S
N1626      C1627   1.364       .  A
N1626      C1675   1.447       .  S
C1627      H1633   1.081       .  S
C1628      N1629   1.358       .  A
C1628      H1630   1.082       .  S
N1629      C1631   1.362       .  A
N1629      C1680   1.454       .  S
C1631      H1632   1.083       .  S
C1636      C1638   1.548       .  S
C1636      C1640   1.537       .  S
C1636      C1639   1.553       .  S
C1636      C1907   1.535       .  S
C1637      C1641   1.531       .  S
C1637      C1643   1.524       .  S
C1637      C1642   1.520       .  S
C1637      C1660   1.520       .  S
C1638      C1646   1.374       .  A
C1638      C1641   1.411       .  A
C1639      C1650   1.384       .  A
C1639      C1642   1.406       .  A
C1640      C1654   1.373       .  A
C1640      C1643   1.403       .  A
C1641      C1644   1.371       .  A
C1642      C1648   1.357       .  A
C1643      C1651   1.364       .  A
C1644      N1645   1.355       .  A
C1644      H1657   1.083       .  S
N1645      C1646   1.362       .  A
N1645      C1671   1.433       .  S
C1646      H1647   1.082       .  S
C1648      N1649   1.353       .  A
C1648      H1658   1.080       .  S
N1649      C1650   1.367       .  A
N1649      C1664   1.437       .  S
C1650      H1656   1.082       .  S
C1651      N1652   1.354       .  A
C1651      H1653   1.082       .  S
N1652      C1654   1.353       .  A
N1652      C1667   1.426       .  S
C1654      H1655   1.083       .  S
C1659      C1660   1.235       .  T
C1661      C1882   1.519       .  S
C1661      C1662   1.234       .  T
C1663      C1664   1.352       .  D
C1663      H1665   1.083       .  S
C1664      H1666   1.087       .  S
C1667      C1668   1.348       .  D
C1667      H1669   1.086       .  S
C1668      H1670   1.085       .  S
C1671      C1672   1.337       .  D
C1671      H1673   1.087       .  S
C1672      H1674   1.086       .  S
C1675      C1676   1.370       .  D
C1675      H1677   1.086       .  S
C1676      H1678   1.085       .  S
C1679      C1680   1.355       .  D
C1679      H1681   1.085       .  S
C1680      H1682   1.087       .  S
C1683      C1684   1.352       .  D
C1683      H1685   1.085       .  S
C1684      H1686   1.087       .  S
C1687      C1688   1.207       .  T
C1689      C1690   1.206       .  T
C1691      C1692   1.206   1_455  T
C1693      C1694   1.207       .  T
C1695      C1696   1.345       .  D
C1695      H1697   1.087       .  S
C1696      H1698   1.086       .  S
C1699      C1700   1.351       .  D
C1699      H1701   1.087       .  S
C1700      H1702   1.084       .  S
C1703      C1704   1.358       .  D
C1703      H1705   1.084       .  S
C1704      H1706   1.087       .  S
C1707      C1708   1.352       .  D
C1707      H1709   1.087       .  S
C1708      H1710   1.086       .  S
C1711      C1712   1.355       .  D
C1711      H1713   1.084       .  S
C1712      N1739   1.450       .  S
C1712      H1960   1.087       .  S
H1714      C1958   1.087       .  S
C1715      C1716   1.374       .  D
C1715      H1717   1.087       .  S
C1716      H1718   1.085       .  S
C1719      C1720   1.241       .  T
C1721      C1722   1.243       .  T
C1723      C1725   1.547       .  S
C1723      C1727   1.560       .  S
C1723      C1726   1.553       .  S
C1723      C1968   1.517       .  S
C1724      C1728   1.526       .  S
C1724      C1730   1.538       .  S
C1724      C1729   1.542       .  S
C1724      C1965   1.523       .  S
C1725      C1733   1.388       .  A
C1726      C1737   1.398       .  A
C1727      C1741   1.399       .  A
C1728      C1731   1.372       .  A
C1729      C1735   1.379       .  A
C1730      C1738   1.369       .  A
C1731      N1732   1.354       .  A
C1731      H1744   1.083       .  S
N1732      C1953   1.430       .  S
C1733      H1734   1.082       .  S
C1735      N1736   1.365       .  A
C1735      H1745   1.081       .  S
N1736      C1961   1.451       .  S
C1737      H1743   1.082       .  S
C1738      H1740   1.083       .  S
N1739      C1741   1.369       .  A
C1741      H1742   1.082       .  S
C1746      C1748   1.548       .  S
C1746      C1750   1.544       .  S
C1746      C1749   1.528       .  S
C1746      C1966   1.521       .  S
C1747      C1751   1.538       .  S
C1747      C1753   1.513       .  S
C1747      C1752   1.537       .  S
C1747      C1967   1.519       .  S
C1748      C1756   1.377       .  A
C1748      C1751   1.411       .  A
C1749      C1760   1.371       .  A
C1749      C1752   1.402       .  A
C1750      C1764   1.381       .  A
C1750      C1753   1.400       .  A
C1751      C1754   1.374       .  A
C1752      C1758   1.371       .  A
C1753      C1761   1.352       .  A
C1754      N1755   1.358       .  A
C1754      H1767   1.083       .  S
N1755      C1756   1.363       .  A
N1755      C1941   1.438       .  S
C1756      H1757   1.082       .  S
C1758      N1759   1.364       .  A
C1758      H1768   1.082       .  S
N1759      C1760   1.352       .  A
N1759      C1950   1.434       .  S
C1760      H1766   1.082       .  S
C1761      N1762   1.351       .  A
C1761      H1763   1.082       .  S
N1762      C1764   1.363       .  A
N1762      C1945   1.429       .  S
C1764      H1765   1.082       .  S
N1769      N1770   1.328       .  A
N1769      N1775   1.315       .  A
N1769     Mn1798   2.237       .  S
N1770      C1777   1.360       .  A
N1771      N1773   1.319       .  A
N1771      N1772   1.333       .  A
N1771     Mn1787   2.234       .  S
N1772      C1778   1.364       .  A
N1773      N1774   1.315       .  A
N1773     Mn1798   2.204       .  S
N1774      C1778   1.345       .  A
N1775      N1776   1.319       .  A
N1775     Mn1787   2.213       .  S
N1776      C1777   1.349       .  A
C1777      C1962   1.485       .  S
C1778      C1922   1.501       .  S
N1779      N1780   1.347       .  A
N1779     Mn1809   2.274       .  S
N1781      N1782   1.327       .  A
N1781      N1783   1.315       .  A
N1782      C1789   1.350       .  A
N1783      N1784   1.324       .  A
N1784      C1789   1.348       .  A
N1785      N1786   1.314       .  A
N1785     Mn1787   2.187       .  S
C1788      C1936   1.443       .  S
C1789      C1929   1.487       .  S
N1790      N1791   1.321       .  A
N1790      N1796   1.314       .  A
N1791      C1799   1.342       .  A
N1792      N1793   1.307       .  A
N1793      C1800   1.341       .  A
N1794      N1795   1.322       .  A
N1796      N1797   1.321       .  A
N1797      C1799   1.347       .  A
C1799      C1954   1.463       .  S
C1800      C1937   1.442       .  S
N1801      N1802   1.318       .  A
N1801      N1807   1.315       .  A
N1801     Mn1809   2.188       .  S
N1802      C1812   1.345   1_556  A
N1803      N1804   1.331       .  A
N1803      N1805   1.316       .  A
N1803     Mn1810   2.283       .  S
N1804      C1813   1.365       .  A
N1805      N1806   1.318       .  A
N1805     Mn1809   2.206       .  S
N1806      C1813   1.347       .  A
N1807      N1808   1.334   1_556  A
N1807     Mn1810   2.254       .  S
N1808      C1812   1.362       .  A
C1812      C1957   1.501       .  S
C1813      C1925   1.494       .  S
N1814      N1815   1.324       .  A
N1814      N1820   1.320       .  A
N1814     Mn1843   2.198       .  S
N1815      C1822   1.358       .  A
N1816      N1818   1.322       .  A
N1816      N1817   1.318       .  A
N1816     Mn1832   2.182       .  S
N1817      C1823   1.353       .  A
N1818      N1819   1.314       .  A
N1818     Mn1843   2.223       .  S
N1819      C1823   1.345       .  A
N1820      N1821   1.313       .  A
N1820     Mn1832   2.217       .  S
N1821      C1822   1.344       .  A
C1822      C1949   1.460       .  S
C1823      C1909   1.453       .  S
N1824      N1825   1.332       .  A
N1824     Mn1854   2.295   1_545  S
N1826      N1827   1.323       .  A
N1826      N1828   1.314       .  A
N1827      C1834   1.345       .  A
N1828      N1829   1.325       .  A
N1829      C1834   1.346       .  A
N1830      N1831   1.344       .  A
N1830     Mn1832   2.248       .  S
C1833      C1940   1.443       .  S
C1834      C1918   1.474       .  S
N1835      N1836   1.325   1_455  A
N1835      N1841   1.317   1_455  A
N1836      C1844   1.350       .  A
N1837      N1838   1.322       .  A
N1837     Mn1855   2.123       .  S
N1838      C1845   1.329       .  A
N1839      N1840   1.337       .  A
N1839     Mn1843   2.290       .  S
N1841      N1842   1.320       .  A
N1842      C1844   1.341       .  A
C1844      C1942   1.470       .  S
C1845      C1933   1.443       .  S
N1846      N1847   1.318       .  A
N1846      N1852   1.305       .  A
N1846     Mn1854   2.293       .  S
N1847      C1857   1.352       .  A
N1848      N1849   1.308       .  A
N1848      N1850   1.312       .  A
N1848     Mn1855   2.178       .  S
N1849      C1858   1.343       .  A
N1850      N1851   1.324       .  A
N1850     Mn1854   2.338       .  S
N1851      C1858   1.360       .  A
N1852      N1853   1.313       .  A
N1852     Mn1855   2.158       .  S
N1853      C1857   1.345       .  A
C1857      C1946   1.451       .  S
C1858      C1914   1.473       .  S
C1859      C1861   1.550       .  S
C1859      C1863   1.566       .  S
C1859      C1862   1.563       .  S
C1859      C1905   1.538       .  S
C1860      C1864   1.536       .  S
C1860      C1866   1.535       .  S
C1860      C1865   1.540       .  S
C1860      C1908   1.537       .  S
C1861      C1869   1.386       .  A
C1861      C1864   1.403       .  A
C1862      C1873   1.399       .  A
C1862      C1865   1.409       .  A
C1863      C1877   1.398       .  A
C1863      C1866   1.407       .  A
C1864      C1867   1.377       .  A
C1865      C1871   1.369       .  A
C1866      C1874   1.368       .  A
C1867      N1868   1.359       .  A
C1867      H1880   1.083       .  S
N1868      C1869   1.363       .  A
N1868      C1930   1.445       .  S
C1869      H1870   1.082       .  S
C1871      N1872   1.358       .  A
C1871      H1881   1.083       .  S
N1872      C1873   1.368       .  A
N1872      C1921   1.448       .  S
C1873      H1879   1.082       .  S
C1874      N1875   1.350       .  A
C1874      H1876   1.084       .  S
N1875      C1877   1.372       .  A
N1875      C1926   1.451       .  S
C1877      H1878   1.081       .  S
C1882      C1884   1.537       .  S
C1882      C1886   1.527       .  S
C1882      C1885   1.533       .  S
C1883      C1887   1.548       .  S
C1883      C1889   1.541       .  S
C1883      C1888   1.534       .  S
C1883      C1906   1.540       .  S
C1884      C1892   1.372       .  A
C1884      C1887   1.410       .  A
C1885      C1896   1.376       .  A
C1885      C1888   1.411       .  A
C1886      C1900   1.371       .  A
C1886      C1889   1.404       .  A
C1887      C1890   1.380       .  A
C1888      C1894   1.364       .  A
C1889      C1897   1.371       .  A
C1890      N1891   1.362       .  A
C1890      H1903   1.082       .  S
N1891      C1892   1.359       .  A
N1891      C1917   1.440       .  S
C1892      H1893   1.082       .  S
C1894      N1895   1.357       .  A
C1894      H1904   1.081       .  S
N1895      C1896   1.355       .  A
N1895      C1910   1.432       .  S
C1896      H1902   1.083       .  S
C1897      N1898   1.360       .  A
C1897      H1899   1.083       .  S
N1898      C1900   1.354       .  A
N1898      C1913   1.430       .  S
C1900      H1901   1.081       .  S
C1905      C1906   1.246       .  T
C1907      C1908   1.244   1_554  T
C1909      C1910   1.337       .  D
C1909      H1911   1.083       .  S
C1910      H1912   1.087       .  S
C1913      C1914   1.350       .  D
C1913      H1915   1.087       .  S
C1914      H1916   1.085       .  S
C1917      C1918   1.346       .  D
C1917      H1919   1.087       .  S
C1918      H1920   1.086       .  S
C1921      C1922   1.357       .  D
C1921      H1923   1.087       .  S
C1922      H1924   1.085       .  S
C1925      C1926   1.342       .  D
C1925      H1927   1.086       .  S
C1926      H1928   1.088       .  S
C1929      C1930   1.348       .  D
C1929      H1931   1.086       .  S
C1930      H1932   1.087       .  S
C1933      C1934   1.207       .  T
C1935      C1936   1.207       .  T
C1937      C1938   1.207       .  T
C1939      C1940   1.206       .  T
C1941      C1942   1.340       .  D
C1941      H1943   1.087       .  S
C1942      H1944   1.086       .  S
C1945      C1946   1.345       .  D
C1945      H1947   1.087       .  S
C1946      H1948   1.084       .  S
C1949      C1950   1.334       .  D
C1949      H1951   1.085       .  S
C1950      H1952   1.087       .  S
C1953      C1954   1.338   1_556  D
C1953      H1955   1.087       .  S
C1954      H1956   1.086       .  S
C1957      C1958   1.355   1_554  D
C1957      H1959   1.085       .  S
C1961      C1962   1.347       .  D
C1961      H1963   1.087   1_556  S
C1962      H1964   1.084       .  S
C1965      C1966   1.236       .  T
C1967      C1968   1.234       .  T
