geometry optimzed in LAMMPS
_audit_creation_date              2020-11-30 
_audit_creation_method            'lammps2cif' 
_symmetry_space_group_name_H-M    'P1' 
_symmetry_Int_Tables_number       1 
_symmetry_cell_setting            triclinic 
loop_ 
_symmetry_equiv_pos_as_xyz 
  x,y,z 
_cell_length_a                    38.01298494 
_cell_length_b                    38.09720589505584 
_cell_length_c                    48.63577960452255 
_cell_angle_alpha                 90.03512282865225 
_cell_angle_beta                  90.09322309771403 
_cell_angle_gamma                 120.05688865041957 
loop_ 
_atom_site_label 
_atom_site_type_symbol 
_atom_site_fract_x 
_atom_site_fract_y 
_atom_site_fract_z 
_atom_site_charge 
C1          C  0.29384097  0.49949697  0.71623847     0.79200
N2          N  0.29117161  0.01816354  0.73971823    -0.79100
C3          C  0.32623803  0.04716081  0.75215395     0.81700
N4          N  0.36234256  0.05576749  0.74187418    -0.79000
C5          C  0.36539635  0.03730335  0.71939484     0.81800
N6          N  0.33120556  0.00903729  0.70657220    -0.80800
C7          C  0.08738070  0.13163115  0.66961190     0.79200
N8          N  0.08373934  0.11738532  0.64324153    -0.79100
C9          C  0.04820933  0.08393733  0.63487666     0.81700
N10         N  0.01718249  0.06534962  0.65267331    -0.79000
C11         C  0.02061220  0.07882822  0.67871895     0.81800
N12         N  0.05542767  0.11212576  0.68696028    -0.80800
C13         C  0.27963585  0.47274136  0.83146678     0.79200
N14         N  0.25972215  0.45490517  0.80733102    -0.79100
C15         C  0.26557897  0.42554295  0.79536700     0.81700
N16         N  0.29136010  0.41552861  0.80688897    -0.79000
C17         C  0.31133352  0.43302931  0.83014178     0.81800
N18         N  0.30547227  0.46155208  0.84248500    -0.80800
C19         C  0.44379721  0.33976887  0.87777162     0.79200
N20         N  0.45629958  0.35448352  0.90390932    -0.79100
C21         C  0.45189381  0.38609291  0.91328065     0.81700
N22         N  0.43512495  0.40203172  0.89687834    -0.79000
C23         C  0.42291907  0.38792525  0.87123303     0.81800
N24         N  0.42697334  0.35672841  0.86182380    -0.80800
C25         C  0.44464236  0.30551820  0.49777976     0.79200
N26         N  0.46944716  0.29358812  0.50945102    -0.79100
C27         C  0.47518663  0.26487102  0.49742419     0.81700
N28         N  0.45635837  0.24798648  0.47375110    -0.79000
C29         C  0.43161106  0.25879314  0.46156413     0.81800
N30         N  0.42567987  0.28826315  0.47327660    -0.80800
C31         C  0.10808636  0.17231540  0.54531547     0.79200
N32         N  0.09069631  0.18872413  0.52937662    -0.79100
C33         C  0.08642164  0.21984723  0.53868090     0.81700
N34         N  0.09897273  0.23452773  0.56416065    -0.79000
C35         C  0.11625470  0.21906743  0.58052600     0.81800
N36         N  0.12083195  0.18749406  0.57130000    -0.80800
C37         C  0.42204381  0.29837420  0.00308398     0.79200
N38         N  0.38926817  0.27835958  0.01985551    -0.79100
C39         C  0.35504338  0.24486598  0.01093588     0.81700
N40         N  0.35331270  0.23199009  0.98491948    -0.79000
C41         C  0.38476886  0.25117423  0.96767532     0.81800
N42         N  0.41972438  0.28462706  0.97666051    -0.80800
C43         C  0.12748567  0.16619973  0.04916574     0.79200
N44         N  0.16453213  0.17512003  0.03943329    -0.79100
C45         C  0.19911260  0.20201570  0.05248880     0.81700
N46         N  0.19669903  0.22073884  0.07513674    -0.79000
C47         C  0.16074301  0.21306573  0.08539109     0.81800
N48         N  0.12536327  0.18485971  0.07280076    -0.80800
C49         C  0.45770175  0.33228095  0.38300055     0.79200
N50         N  0.49471485  0.34362151  0.37194486    -0.79100
C51         C  0.02925235  0.37230257  0.38420448     0.81700
N52         N  0.02690467  0.38942292  0.40759596    -0.79000
C53         C  0.49109777  0.37932201  0.41919457     0.81800
N54         N  0.45569368  0.35000078  0.40719616    -0.80800
C55         C  0.25389601  0.46597479  0.33520807     0.79200
N56         N  0.25190230  0.45118088  0.30914820    -0.79100
C57         C  0.21606290  0.41909978  0.29976567     0.81700
N58         N  0.18330726  0.40262062  0.31612169    -0.79000
C59         C  0.18500419  0.41655929  0.34175866     0.81800
N60         N  0.22005273  0.44847019  0.35112920    -0.80800
C61         C  0.10591348  0.13485713  0.16671639     0.79200
N62         N  0.12377996  0.11777849  0.18142094    -0.79100
C63         C  0.12573406  0.08562048  0.17150620     0.81700
N64         N  0.11048583  0.07080121  0.14653095    -0.79000
C65         C  0.09264642  0.08689090  0.13126972     0.81800
N66         N  0.09030709  0.11945704  0.14114544    -0.80800
C67         C  0.27040509  0.00279412  0.21282378     0.79200
N68         N  0.28751291  0.01968015  0.23778433    -0.79100
C69         C  0.28107874  0.04916990  0.24882398     0.81700
N70         N  0.25764790  0.06051489  0.23548197    -0.79000
C71         C  0.24068007  0.04419947  0.21120976     0.81800
N72         N  0.24668212  0.01513494  0.19993708    -0.80800
C73         C  0.04111189  0.25428935  0.83474502     0.79200
N74         N  0.05671788  0.25394127  0.80932313    -0.79100
C75         C  0.08933981  0.28884748  0.79940615     0.81700
N76         N  0.10526415  0.32297441  0.81445700    -0.79000
C77         C  0.09015387  0.32366748  0.83922128     0.81800
N78         N  0.05797804  0.28952038  0.84921296    -0.80800
C79         C  0.17098382  0.05134391  0.87902083     0.79200
N80         N  0.15844208  0.01568186  0.86559075    -0.79100
C81         C  0.12926271  0.48025816  0.87642942     0.81700
N82         N  0.11283179  0.48008009  0.90084392    -0.79000
C83         C  0.12425179  0.01452620  0.91469578     0.81800
N84         N  0.15402455  0.05078982  0.90408614    -0.80800
C85         C  0.37351927  0.40349099  0.66835184     0.79200
N86         N  0.38921711  0.41829232  0.64281538    -0.79100
C87         C  0.41974435  0.41277758  0.63260598     0.81700
N88         N  0.43350537  0.39251445  0.64746902    -0.79000
C89         C  0.41833021  0.37785367  0.67243798     0.81800
N90         N  0.38813951  0.38293498  0.68275601    -0.80800
C91         C  0.00475226  0.23733617  0.71338702     0.79200
N92         N  0.48881724  0.22060294  0.73859364    -0.79100
C93         C  0.45747122  0.22444934  0.74920927     0.81700
N94         N  0.44321125  0.24499511  0.73514639    -0.79000
C95         C  0.45858184  0.26154388  0.71062993     0.81800
N96         N  0.48943962  0.25799742  0.69986928    -0.80800
C97         C  0.20480171  0.08644805  0.50066722     0.79200
N98         N  0.21994422  0.12221681  0.51426144    -0.79100
C99         C  0.25110062  0.15660976  0.50383711     0.81700
N100        N  0.26705438  0.15558411  0.47946657    -0.79000
C101        C  0.25306928  0.12085830  0.46527204     0.81800
N102        N  0.22125346  0.08563104  0.47562408    -0.80800
C103        C  0.33438524  0.38384428  0.54503202     0.79200
N104        N  0.31784415  0.38386297  0.57013270    -0.79100
C105        C  0.28680601  0.34819736  0.58048273     0.81700
N106        N  0.27344093  0.31372461  0.56627576    -0.79000
C107        C  0.28947337  0.31312360  0.54190746     0.81800
N108        N  0.32011477  0.34803092  0.53136997    -0.80800
C109        C  0.20946693  0.07308809  0.00269366     0.79200
N110        N  0.22552534  0.05455966  0.01779798    -0.79100
C111        C  0.25674120  0.05064341  0.00810592     0.81700
N112        N  0.27214111  0.06515944  0.98307776    -0.79000
C113        C  0.25710195  0.08364961  0.96743669     0.81800
N114        N  0.22518609  0.08751474  0.97703718    -0.80800
C115        C  0.33870094  0.40496035  0.04699691     0.79200
N116        N  0.32133580  0.38657048  0.07156545    -0.79100
C117        C  0.29001525  0.39061198  0.08216121     0.81700
N118        N  0.27753750  0.41327107  0.06874563    -0.79000
C119        C  0.29482373  0.43188397  0.04502900     0.81800
N120        N  0.32525105  0.42770832  0.03423522    -0.80800
C121        C  0.17276944  0.07272497  0.38205333     0.79200
N122        N  0.15922072  0.09515279  0.36894476    -0.79100
C123        C  0.12931723  0.10009262  0.37983277     0.81700
N124        N  0.11277241  0.08283093  0.40399612    -0.79000
C125        C  0.12535444  0.06049854  0.41770769     0.81800
N126        N  0.15603024  0.05548541  0.40700200    -0.80800
C127        C  0.04112663  0.23804932  0.33471167     0.79200
N128        N  0.05650982  0.21868506  0.34963170    -0.79100
C129        C  0.08731660  0.21420880  0.33981973     0.81700
N130        N  0.10283217  0.22868980  0.31489655    -0.79000
C131        C  0.08831853  0.24777315  0.29945985     0.81800
N132        N  0.05690149  0.25241798  0.30909999    -0.80800
C133        C  0.99924288  0.22039141  0.21027758     0.79200
N134        N  0.48479594  0.21689466  0.23651761    -0.79100
C135        C  0.45052206  0.18187833  0.24458898     0.81700
N136        N  0.43133333  0.15116553  0.22654597    -0.79000
C137        C  0.44506166  0.15438148  0.20058924     0.81800
N138        N  0.47909615  0.18870128  0.19267750    -0.80800
C139        C  0.36802983  0.42772042  0.16380055     0.79200
N140        N  0.38695788  0.42519980  0.14039547    -0.79100
C141        C  0.41477574  0.46017713  0.12738945     0.81700
N142        N  0.42217125  0.49617240  0.13721345    -0.79000
C143        C  0.40367033  0.49910966  0.15979227     0.81800
N144        N  0.37652534  0.46493664  0.17310545    -0.80800
C145        C  0.26808769  0.25169696  0.33586439     0.79200
N146        N  0.25557051  0.25398055  0.30973731    -0.79100
C147        C  0.25960963  0.28991900  0.30049576     0.81700
N148        N  0.27601063  0.32250060  0.31704418    -0.79000
C149        C  0.28829798  0.32059859  0.34266758     0.81800
N150        N  0.28457120  0.28539037  0.35193975    -0.80800
C151        C  0.43394173  0.04937318  0.38154970     0.79200
N152        N  0.45339552  0.05122788  0.40585549    -0.79100
C153        C  0.44813895  0.01596877  0.41733892     0.81700
N154        N  0.42214558  0.47985942  0.40581419    -0.79000
C155        C  0.40210940  0.47745080  0.38260549     0.81800
N156        N  0.40903829  0.01254037  0.36998003    -0.80800
C157        C  0.26780686  0.21647524  0.71354222     0.79200
N158        N  0.28676654  0.21809770  0.73805665    -0.79100
C159        C  0.28227253  0.18290052  0.74920427     0.81700
N160        N  0.25869573  0.14743722  0.73638167    -0.79000
C161        C  0.23963219  0.14550170  0.71273110     0.81800
N162        N  0.24412809  0.17987538  0.70135614    -0.80800
C163        C  0.10048519  0.41848738  0.66984418     0.79200
N164        N  0.08646306  0.42015151  0.64407947    -0.79100
C165        C  0.09024368  0.45598334  0.63478567     0.81700
N166        N  0.10814363  0.48910101  0.65080573    -0.79000
C167        C  0.12225847  0.48785027  0.67591849     0.81800
N168        N  0.11861109  0.45276312  0.68531445    -0.80800
C169        C  0.42167530  0.06936705  0.50012176     0.79200
N170        N  0.42260151  0.08598356  0.47484392    -0.79100
C171        C  0.38709318  0.08103149  0.46381905     0.81700
N172        N  0.35209146  0.05933274  0.47747135    -0.79000
C173        C  0.35087414  0.04282828  0.50202131     0.81800
N174        N  0.38561166  0.04796227  0.51329090    -0.80800
C175        C  0.12299337  0.40225269  0.54631306     0.79200
N176        N  0.15827549  0.42201785  0.53192118    -0.79100
C177        C  0.19337544  0.42654218  0.54234917     0.81700
N178        N  0.19331861  0.41156416  0.56727892    -0.79000
C179        C  0.15924177  0.39197808  0.58208352     0.81800
N180        N  0.12346987  0.38724299  0.57186030    -0.80800
C181        C  0.28684803  0.22999867  0.21104959     0.79200
N182        N  0.32092559  0.24703788  0.19538399    -0.79100
C183        C  0.35606588  0.25062985  0.20482506     0.81700
N184        N  0.35739149  0.23739182  0.23023523    -0.79000
C185        C  0.32436020  0.22029589  0.24636903     0.81800
N186        N  0.28855944  0.21661355  0.23696872    -0.80800
C187        C  0.08446095  0.39634871  0.16520706     0.79200
N188        N  0.04758231  0.37131908  0.17662918    -0.79100
C189        C  0.01297128  0.36593020  0.16482872     0.81700
N190        N  0.01515312  0.38585608  0.14163694    -0.79000
C191        C  0.05088497  0.41096555  0.12969435     0.81800
N192        N  0.08625650  0.41610019  0.14112643    -0.80800
C193        C  0.43478189  0.08549765  0.00123053     0.79200
N194        N  0.42386339  0.08823806  0.97476058    -0.79100
C195        C  0.42723209  0.12391851  0.96577072     0.81700
N196        N  0.44091480  0.15558180  0.98291433    -0.79000
C197        C  0.45121041  0.15319258  0.00898754     0.81800
N198        N  0.44855865  0.11832413  0.01801473    -0.80800
C199        C  0.09564959  0.37995511  0.04998185     0.79200
N200        N  0.11670602  0.38197740  0.07349785    -0.79100
C201        C  0.11007506  0.34661540  0.08561581     0.81700
N202        N  0.08222896  0.31081632  0.07501779    -0.79000
C203        C  0.06090722  0.30845657  0.05248716     0.81800
N204        N  0.06785931  0.34299034  0.03988592    -0.80800
C205        C  0.25397199  0.23275527  0.83141593     0.79200
N206        N  0.21719512  0.20775398  0.84287038    -0.79100
C207        C  0.18250019  0.20152524  0.83079863     0.81700
N208        N  0.18448567  0.22071351  0.80734928    -0.79000
C209        C  0.22008959  0.24583339  0.79538812     0.81800
N210        N  0.25563645  0.25181553  0.80704499    -0.80800
C211        C  0.45674224  0.06850949  0.87859394     0.79200
N212        N  0.49119441  0.08608211  0.86323280    -0.79100
C213        C  0.02607887  0.08932014  0.87289253     0.81700
N214        N  0.02684351  0.07575259  0.89822592    -0.79000
C215        C  0.49374912  0.05859084  0.91410366     0.81800
N216        N  0.45800787  0.05469913  0.90444556    -0.80800
O217        O  0.36377631  0.08933258  0.78899579    -0.81100
O218        O  0.23101452  0.11566610  0.88634677    -0.82700
O219        O  0.27221452  0.03122043  0.82690783    -0.79700
O220        O  0.28377413  0.14454291  0.78702134    -0.78100
O221        O  0.33214910  0.21190616  0.78433749    -0.79900
O222        O  0.30113823  0.02312761  0.86597454    -0.80800
O223        O  0.22302983  0.08152579  0.84590520    -0.82100
O224        O  0.29643155  0.07025432  0.78497716    -0.82400
Eu225      Eu  0.29078622  0.10360938  0.82533654     2.39200
O226        O  0.30648137  0.16744406  0.84120820    -0.89900
O227        O  0.34201916  0.09058775  0.84138604    -0.93500
C228        C  0.32827334  0.06968337  0.77709858     1.01100
C229        C  0.20969016  0.08650408  0.86929802     1.01000
C230        C  0.28230579  0.01037404  0.84264354     1.00900
C231        C  0.30034728  0.18020227  0.77539924     0.98800
H232        H  0.26830217  0.07897044  0.88122422     0.28500
O233        O  0.29224055  0.10197207  0.87385559    -1.02300
H234        H  0.35588292  0.15316591  0.79009074     0.28500
O235        O  0.35587605  0.15336798  0.80992605    -1.04900
O236        O  0.34356518  0.21301890  0.92948879    -0.82100
O237        O  0.47909919  0.19141973  0.82782821    -0.81600
O238        O  0.29637117  0.08230445  0.92948253    -0.80100
O239        O  0.31937169  0.23916829  0.82660294    -0.83400
O240        O  0.41894123  0.22488497  0.78711432    -0.81300
O241        O  0.39379882  0.06701674  0.88636072    -0.79900
O242        O  0.42894261  0.16540899  0.92855566    -0.81400
O243        O  0.44459891  0.27832759  0.88607283    -0.83400
O244        O  0.38312200  0.09697887  0.92875183    -0.80100
O245        O  0.41738276  0.28572683  0.84591542    -0.82800
O246        O  0.27351377  0.12783346  0.93000108    -0.78500
O247        O  0.42857510  0.09384846  0.84629656    -0.78500
O248        O  0.43821662  0.17672830  0.78497600    -0.78200
O249        O  0.28152023  0.20881043  0.86507542    -0.81700
O250        O  0.41213708  0.23595638  0.92974927    -0.81100
O251        O  0.48720967  0.22809505  0.86699258    -0.79400
Eu252      Eu  0.30475285  0.16657491  0.88941389     2.39800
Eu253      Eu  0.40606812  0.13902980  0.82584274     2.39600
Eu254      Eu  0.34270440  0.08944033  0.88944638     2.38400
Eu255      Eu  0.37110168  0.21821328  0.82525918     2.39900
Eu256      Eu  0.42042337  0.20483547  0.88947730     2.39800
O257        O  0.42016856  0.20371836  0.84128460    -0.93900
O258        O  0.35606421  0.15369261  0.90426514    -0.92700
C259        C  0.38003435  0.23322411  0.94020520     1.01300
C260        C  0.50056300  0.22148183  0.84414523     1.00000
C261        C  0.27616466  0.09837598  0.94034848     0.99400
C262        C  0.28832195  0.22882220  0.84222161     1.01400
C263        C  0.43794481  0.20804894  0.77575156     1.00400
C264        C  0.42300167  0.07480353  0.86940842     0.99200
C265        C  0.41306529  0.12889159  0.93889919     0.99300
C266        C  0.43698799  0.29954418  0.86890240     1.01900
H267        H  0.43028712  0.14083929  0.88130140     0.29200
O268        O  0.40722905  0.14179620  0.87409038    -1.06000
H269        H  0.36952286  0.24109063  0.88109199     0.31300
O270        O  0.36804203  0.21691599  0.87380926    -1.08600
O271        O  0.45010671  0.42563761  0.95082298    -0.81100
O272        O  0.10466173  0.44650924  0.05405309    -0.82700
O273        O  0.08315105  0.47437089  0.95207294    -0.79700
O274        O  0.48343102  0.36109928  0.99456647    -0.78100
O275        O  0.44872728  0.35337973  0.03464967    -0.79900
O276        O  0.10466254  0.04247338  0.95019729    -0.80800
O277        O  0.07503438  0.40907387  0.01524420    -0.82100
O278        O  0.49601265  0.40314369  0.95064904    -0.82400
Eu279      Eu  0.03470447  0.43453622  0.99104658     2.39200
O280        O  0.03525286  0.43668833  0.03913288    -0.89900
O281        O  0.02219357  0.48572929  0.97585042    -0.93500
C282        C  0.46626972  0.40533744  0.94027636     1.01100
C283        C  0.09389145  0.41518935  0.03855481     1.01000
C284        C  0.10333743  0.51043801  0.94089243     1.00900
C285        C  0.45456392  0.33956387  0.01172758     0.98800
H286        H  0.10987138  0.49882765  0.99942039     0.28500
O287        O  0.08564630  0.49763964  0.00646340    -1.02300
H288        H  0.44719765  0.39857545  0.99900337     0.28500
O289        O  0.47018627  0.42268700  0.00627304    -1.04900
O290        O  0.09378403  0.04845956  0.09336805    -0.82100
O291        O  0.43469871  0.02342937  0.99311504    -0.81600
O292        O  0.14746468  0.07334910  0.99420698    -0.80100
O293        O  0.51255319  0.41390225  0.09248081    -0.83400
O294        O  0.39846019  0.39983705  0.05289450    -0.81300
O295        O  0.03429567  0.05873660  0.95146504    -0.79900
O296        O  0.06046840  0.10918581  0.05271561    -0.81400
O297        O  0.45731496  0.99722658  0.09058037    -0.83400
O298        O  0.09885273  0.11588020  0.01473735    -0.80100
O299        O  0.43868814  0.43022487  0.09495820    -0.82800
O300        O  0.15494008  0.04645265  0.03444602    -0.78500
O301        O  0.46592414  0.01285679  0.95039785    -0.78500
O302        O  0.39216165  0.43126991  0.01461203    -0.78200
O303        O  0.08017675  0.46190487  0.09561453    -0.81700
O304        O  0.04600924  0.06843889  0.09473607    -0.81100
O305        O  0.46229845  0.05886758  0.03293789    -0.79400
Eu306      Eu  0.08680769  0.50086515  0.05495451     2.39800
Eu307      Eu  0.45793014  0.47301595  0.99026573     2.39600
Eu308      Eu  0.07371570  0.05003420  0.99061080     2.38400
Eu309      Eu  0.47142657  0.42164637  0.05481566     2.39900
Eu310      Eu  0.00763003  0.03672728  0.05374173     2.39800
O311        O  0.45860739  0.47271255  0.03836086    -0.93900
O312        O  0.07202170  0.04939803  0.03866552    -0.92700
C313        C  0.07699456  0.06772253  0.10441977     1.01300
C314        C  0.44248153  0.05264954  0.01004193     1.00000
C315        C  0.16885676  0.06594760  0.01146395     0.99400
C316        C  0.04829936  0.43003367  0.10412472     1.01400
C317        C  0.37812704  0.41047082  0.03710767     1.00400
C318        C  0.99792050  0.04289793  0.94063506     0.99200
C319        C  0.09224717  0.12923788  0.03757882     0.99300
C320        C  0.43778249  0.46201185  0.10259563     1.01900
H321        H  0.00944410  0.06080721  0.99815063     0.29200
O322        O  0.01053364  0.03788266  0.00543587    -1.06000
H323        H  0.02136731  0.48670331  0.08973308     0.31300
O324        O  0.02173195  0.48658090  0.06992968    -1.08600
O325        O  0.42865426  0.21747548  0.42451372    -0.81100
O326        O  0.26741622  0.18928218  0.32755349    -0.82700
O327        O  0.39184169  0.27372908  0.38730674    -0.79700
O328        O  0.29199692  0.16000860  0.42725695    -0.78100
O329        O  0.27327222  0.09273074  0.42953999    -0.79900
O330        O  0.42945559  0.28167029  0.34861007    -0.80800
O331        O  0.29344535  0.22323701  0.36807145    -0.82100
O332        O  0.37966334  0.23556766  0.42817659    -0.82400
Eu333      Eu  0.33926256  0.20118145  0.38853463     2.39200
O334        O  0.29089737  0.13737933  0.37283201    -0.89900
O335        O  0.40350747  0.21477060  0.37210145    -0.93500
C336        C  0.41233453  0.23676265  0.43618655     1.01100
C337        C  0.27470415  0.21804368  0.34477900     1.01000
C338        C  0.42298449  0.29450927  0.37176026     1.00900
C339        C  0.27317887  0.12420417  0.43874573     0.98800
H340        H  0.34120928  0.22601863  0.33277076     0.28500
O341        O  0.34240310  0.20314394  0.34002677    -1.02300
H342        H  0.35605478  0.15243535  0.42361852     0.28500
O343        O  0.35555078  0.15215404  0.40378901    -1.04900
O344        O  0.28273409  0.09041792  0.28595828    -0.82100
O345        O  0.44020556  0.11472671  0.38651577    -0.81600
O346        O  0.36541066  0.22294482  0.28444786    -0.80100
O347        O  0.23282947  0.06793209  0.38771628    -0.83400
O348        O  0.34772202  0.08070070  0.42610196    -0.81300
O349        O  0.47954915  0.23974346  0.32677949    -0.79900
O350        O  0.41305318  0.14008364  0.28300014    -0.81400
O351        O  0.31678875  0.02756761  0.32719256    -0.83400
O352        O  0.43526535  0.20835052  0.28298898    -0.80100
O353        O  0.28274784  0.01943930  0.36766127    -0.82800
O354        O  0.29721937  0.17591422  0.28361982    -0.78500
O355        O  0.48782615  0.21331124  0.36693527    -0.78500
O356        O  0.41513971  0.12953792  0.42838494    -0.78200
O357        O  0.22420513  0.09575747  0.34834462    -0.81700
O358        O  0.32910298  0.06859406  0.28407535    -0.81100
O359        O  0.41042442  0.07729511  0.34773836    -0.79400
Eu360      Eu  0.29017741  0.13847936  0.32467928     2.39800
Eu361      Eu  0.42035092  0.16745294  0.38758857     2.39600
Eu362      Eu  0.40550904  0.21614734  0.32406167     2.38400
Eu363      Eu  0.30551176  0.08715492  0.38847842     2.39900
Eu364      Eu  0.36819923  0.10109179  0.32393698     2.39800
O365        O  0.36931316  0.10285123  0.37209076    -0.93900
O366        O  0.35433976  0.15179145  0.30974674    -0.92700
C367        C  0.29844165  0.07008346  0.27481667     1.01300
C368        C  0.43000823  0.08376143  0.37079935     1.00000
C369        C  0.32904827  0.20603345  0.27347958     0.97000
C370        C  0.21149107  0.07702798  0.37166832     1.01400
C371        C  0.38372049  0.09776910  0.43744255     1.00400
C372        C  0.50121226  0.23231544  0.34379780     0.99200
C373        C  0.43257901  0.17647571  0.27221816     0.99300
C374        C  0.28793281  0.00602968  0.34435264     1.01900
H375        H  0.44283224  0.16562708  0.33148144     0.29200
O376        O  0.41886067  0.16437583  0.33906304    -1.06000
H377        H  0.28055841  0.06475925  0.33297491     0.31300
O378        O  0.30375670  0.08878463  0.34005712    -1.08600
O379        O  0.22741155  0.44159476  0.72026911    -0.81100
O380        O  0.24680850  0.30827423  0.61798256    -0.82700
O381        O  0.31281153  0.40628278  0.66065643    -0.79700
O382        O  0.19936109  0.39185783  0.61933775    -0.78100
O383        O  0.13093950  0.34583526  0.61808852    -0.79900
O384        O  0.32086370  0.37998646  0.70091662    -0.80800
O385        O  0.26994697  0.37669501  0.61712897    -0.82100
O386        O  0.26509789  0.44932856  0.68169062    -0.82400
Eu387      Eu  0.23914978  0.38337547  0.65787422     2.39200
O388        O  0.18770240  0.31935156  0.64272774    -0.89900
O389        O  0.23755295  0.38239323  0.70583981    -0.93500
C390        C  0.25880284  0.46218442  0.70482301     1.01100
C391        C  0.26724441  0.34446125  0.60708303     1.01000
C392        C  0.33422876  0.39864119  0.67770952     1.00900
C393        C  0.16308632  0.37605064  0.60849033     0.98800
H394        H  0.27549202  0.33206087  0.66532279     0.28500
O395        O  0.25142310  0.33090767  0.67264260    -1.02300
H396        H  0.17470462  0.39367104  0.66656595     0.28500
O397        O  0.17606452  0.37079893  0.67359188    -1.04900
O398        O  0.14883005  0.19431388  0.66058900    -0.82100
O399        O  0.12691368  0.32829629  0.76112649    -0.81600
O400        O  0.27314524  0.28140899  0.71895969    -0.80100
O401        O  0.11540440  0.25929246  0.61800225    -0.83400
O402        O  0.09979140  0.35613759  0.66141239    -0.81300
O403        O  0.26157551  0.38368294  0.75832264    -0.79900
O404        O  0.18126009  0.24803107  0.75834255    -0.81400
O405        O  0.06565641  0.23468618  0.71976562    -0.83400
O406        O  0.24870753  0.29643221  0.76138381    -0.80100
O407        O  0.05730182  0.26284177  0.68047210    -0.82800
O408        O  0.24267412  0.24379623  0.68036645    -0.78500
O409        O  0.21351200  0.40300220  0.76194551    -0.78500
O410        O  0.12706246  0.39071512  0.70159242    -0.78200
O411        O  0.16079002  0.23616635  0.61746071    -0.81700
O412        O  0.11506924  0.18653014  0.70109112    -0.81100
O413        O  0.10720108  0.26069042  0.76269709    -0.79400
Eu414      Eu  0.20026607  0.26790835  0.65738122     2.39800
Eu415      Eu  0.17333743  0.36914111  0.72202560     2.39600
Eu416      Eu  0.25323592  0.33414850  0.72097885     2.38400
Eu417      Eu  0.12361601  0.30632789  0.65782815     2.39900
Eu418      Eu  0.13829397  0.25461915  0.72140518     2.39800
O419        O  0.12443880  0.30546926  0.70603583    -0.93900
O420        O  0.20189228  0.26963595  0.70541054    -0.92700
C421        C  0.12028092  0.17277777  0.67794615     1.01300
C422        C  0.10806324  0.29235464  0.77240561     1.00000
C423        C  0.26287707  0.25048803  0.70317310     0.99400
C424        C  0.13112187  0.23866405  0.60731863     1.01400
C425        C  0.10741183  0.38499650  0.67861320     1.00400
C426        C  0.24578048  0.40341959  0.77006326     0.99200
C427        C  0.21711901  0.26441695  0.76984809     0.99300
C428        C  0.04430375  0.24344881  0.70350800     1.01900
H429        H  0.18914999  0.31936704  0.75679143     0.29200
O430        O  0.18859506  0.31929287  0.73697356    -1.06000
H431        H  0.11287876  0.23186114  0.66588958     0.31300
O432        O  0.13603249  0.25587156  0.67309182    -1.08600
O433        O  0.19848015  0.25532710  0.12223641    -0.81100
O434        O  0.06295933  0.28099132  0.21947016    -0.82700
O435        O  0.10331773  0.19570706  0.16042839    -0.79700
O436        O  0.11470535  0.30869065  0.12211216    -0.78100
O437        O  0.16289520  0.37598733  0.11857822    -0.79900
O438        O  0.13370838  0.18868810  0.19905851    -0.80800
O439        O  0.05532745  0.24575261  0.17966596    -0.82100
O440        O  0.13094574  0.23567545  0.11865194    -0.82400
Eu441      Eu  0.12353046  0.26808379  0.15916589     2.39200
O442        O  0.13874959  0.33197542  0.17456987    -0.89900
O443        O  0.17536726  0.25596325  0.17492913    -0.93500
C444        C  0.16292921  0.23553073  0.11048281     1.01100
C445        C  0.04127029  0.25212612  0.20231300     1.01000
C446        C  0.11320604  0.17498670  0.17635359     1.00900
C447        C  0.13053794  0.34419214  0.11048179     0.98800
H448        H  0.10038528  0.24372456  0.21478135     0.28500
O449        O  0.12465209  0.26656406  0.20756621    -1.02300
H450        H  0.18817335  0.31798787  0.12386150     0.28500
O451        O  0.18840663  0.31828391  0.14368006    -1.04900
O452        O  0.17529842  0.37908575  0.26210961    -0.82100
O453        O  0.31138689  0.36042575  0.16049459    -0.81600
O454        O  0.12846267  0.24716773  0.26212888    -0.80100
O455        O  0.15006200  0.40278509  0.16021097    -0.83400
O456        O  0.25062655  0.39008206  0.12008031    -0.81300
O457        O  0.22487690  0.23010885  0.21941054    -0.79900
O458        O  0.26131449  0.33122342  0.26285593    -0.81400
O459        O  0.27516222  0.44356558  0.21994705    -0.83400
O460        O  0.21537424  0.26282766  0.26315747    -0.80100
O461        O  0.24835618  0.45097751  0.17954874    -0.82800
O462        O  0.10572640  0.29279745  0.26284661    -0.78500
O463        O  0.26052928  0.25845759  0.17983295    -0.78500
O464        O  0.27028801  0.34219748  0.11787155    -0.78200
O465        O  0.11247053  0.37263342  0.19876159    -0.81700
O466        O  0.24379065  0.40165900  0.26312971    -0.81100
O467        O  0.31936928  0.39768961  0.19936689    -0.79400
Eu468      Eu  0.13693866  0.33126996  0.22264091     2.39800
Eu469      Eu  0.23933739  0.30482799  0.15940454     2.39600
Eu470      Eu  0.17588887  0.25485063  0.22292009     2.38400
Eu471      Eu  0.20311427  0.38318214  0.15873666     2.39900
Eu472      Eu  0.25294307  0.37036122  0.22326402     2.39800
O473        O  0.25187309  0.36868396  0.17515066    -0.93900
O474        O  0.18858186  0.31891540  0.23766349    -0.92700
C475        C  0.21163042  0.39957031  0.27296067     1.01300
C476        C  0.33185492  0.39201657  0.17585111     1.00000
C477        C  0.10802656  0.26304824  0.27285598     0.99400
C478        C  0.11897625  0.39239022  0.17586086     1.01400
C479        C  0.26972702  0.37340326  0.10856730     1.00400
C480        C  0.25398372  0.23791512  0.20240964     0.99200
C481        C  0.24518863  0.29479305  0.27346738     0.99300
C482        C  0.26687378  0.46448953  0.20292341     1.01900
H483        H  0.26367615  0.30575138  0.21517349     0.29200
O484        O  0.24094540  0.30732286  0.20788270    -1.06000
H485        H  0.20080599  0.40549366  0.21446686     0.31300
O486        O  0.20008077  0.38163138  0.20725334    -1.08600
O487        O  0.50663474  0.04482623  0.59691502    -0.81100
O488        O  0.14434988  0.02225158  0.49476117    -0.82700
O489        O  0.09180038  0.99714838  0.59703688    -0.79700
O490        O  0.10898901  0.11086614  0.55401003    -0.78100
O491        O  0.08269370  0.11838030  0.51347914    -0.79900
O492        O  0.04586221  0.42872506  0.59744800    -0.80800
O493        O  0.15100358  0.06035374  0.53295715    -0.82100
O494        O  0.07534644  0.06813557  0.59719562    -0.82400
Eu495      Eu  0.08510162  0.03719995  0.55728170     2.39200
O496        O  0.08494974  0.03577454  0.50914907    -0.89900
O497        O  0.02064058  0.48577241  0.57127495    -0.93500
C498        C  0.04313522  0.06530062  0.60759615     1.01100
C499        C  0.16494390  0.05318682  0.51050888     1.01000
C500        C  0.07555362  0.46070773  0.60781806     1.00900
C501        C  0.10170949  0.13214274  0.53663662     0.98800
H502        H  0.09591136  0.47360452  0.54906598     0.28500
O503        O  0.07286406  0.47443483  0.54163261    -1.02300
H504        H  0.03422309  0.07341033  0.54872210     0.28500
O505        O  0.03278069  0.04919012  0.54145857    -1.04900
O506        O  0.02970176  0.42136117  0.45609089    -0.82100
O507        O  0.39525256  0.44777122  0.55252792    -0.81600
O508        O  0.05969162  0.39992987  0.55380110    -0.80100
O509        O  0.08525131  0.05961269  0.45514758    -0.83400
O510        O  0.48568416  0.07289524  0.49459821    -0.81300
O511        O  0.46006403  0.41292640  0.59530444    -0.79900
O512        O  0.43680113  0.36367672  0.49354983    -0.81400
O513        O  0.44955217  0.47742345  0.45503757    -0.83400
O514        O  0.46759081  0.35640019  0.53188936    -0.80100
O515        O  0.49829915  0.04487911  0.45207890    -0.82800
O516        O  0.09430323  0.42651456  0.51365885    -0.78500
O517        O  0.43756123  0.45875492  0.59637639    -0.78500
O518        O  0.44764787  0.04288194  0.53304533    -0.78200
O519        O  0.10428048  0.01130915  0.45281576    -0.81700
O520        O  0.46227988  0.40250992  0.45255055    -0.81100
O521        O  0.38811915  0.41246610  0.51280837    -0.79400
Eu522      Eu  0.07140573  0.97146811  0.49312054     2.39800
Eu523      Eu  0.46924710  0.49863039  0.55647286     2.39600
Eu524      Eu  0.00820891  0.42182486  0.55655243     2.38400
Eu525      Eu  0.03647385  0.05085076  0.49301595     2.39900
Eu526      Eu  0.45645090  0.43608784  0.49268288     2.39800
O527        O  0.47130583  0.49990291  0.50827747    -0.93900
O528        O  0.00760245  0.42284460  0.50857300    -0.92700
C529        C  0.99395617  0.40171178  0.44443538     1.01300
C530        C  0.37415015  0.41816540  0.53568264     1.00000
C531        C  0.08892127  0.40777211  0.53686935     0.99400
C532        C  0.10450690  0.04303279  0.44383648     1.01400
C533        C  0.45498607  0.06335691  0.51037398     1.00400
C534        C  0.43962461  0.42868480  0.60612919     0.99200
C535        C  0.44778557  0.34325108  0.50891653     0.99300
C536        C  0.46607387  0.51303495  0.44344874     1.01900
H537        H  0.43336167  0.41125557  0.54813969     0.29200
O538        O  0.45750764  0.43427128  0.54105013    -1.06000
H539        H  0.02168229  0.48598326  0.45751985     0.31300
O540        O  0.02151323  0.48602048  0.47732765    -1.08600
C541        C  0.10751440  0.16710979  0.82772857    -0.22300
C542        C  0.14246285  0.17107795  0.84077871    -0.10400
C543        C  0.13832340  0.14450093  0.86200850     0.28500
C544        C  0.09990502  0.11559678  0.87064071    -0.22300
C545        C  0.06496393  0.11335208  0.85884182    -0.10400
C546        C  0.06901338  0.13846030  0.83659353     0.28500
F547        F  0.03620611  0.13679549  0.82415235    -0.20900
H548        H  0.10975348  0.18675814  0.81091411     0.16900
H549        H  0.09775738  0.09606731  0.88751147     0.16900
F550        F  0.17109448  0.14665366  0.87482149    -0.20900
C551        C  0.02535155  0.23351267  0.05627215    -0.22300
C552        C  0.02892248  0.26832844  0.04344231    -0.10400
C553        C  0.00161962  0.26395350  0.02256964     0.28500
C554        C  0.47267782  0.22549969  0.01397455    -0.22300
C555        C  0.47205427  0.19090776  0.02475905    -0.10400
C556        C  0.99730839  0.19503388  0.04690843     0.28500
F557        F  0.99725529  0.16246338  0.05828907    -0.20900
H558        H  0.04550834  0.23586969  0.07283493     0.16900
H559        H  0.45274485  0.22313115  0.99723673     0.16900
F560        F  0.00393016  0.29652043  0.00959630    -0.20900
C561        C  0.42895276  0.27406393  0.19956251    -0.22300
C562        C  0.39464236  0.27580566  0.19071092    -0.10400
C563        C  0.39945544  0.30643686  0.17245718     0.28500
C564        C  0.43822487  0.33591925  0.16454325    -0.22300
C565        C  0.47268907  0.33538318  0.17460796    -0.10400
C566        C  0.46768587  0.30387327  0.19194732     0.28500
F567        F  0.50001601  0.30191006  0.20178033    -0.20900
H568        H  0.42597550  0.25053265  0.21348911     0.16900
H569        H  0.44119986  0.35972413  0.15089713     0.16900
F570        F  0.36725842  0.30953957  0.16350089    -0.20900
C571        C  0.27554967  0.50916665  0.50025163    -0.22300
C572        C  0.31114127  0.01468526  0.51362458    -0.10400
C573        C  0.30618416  0.48403448  0.53287646     0.28500
C574        C  0.26767737  0.45480344  0.54122975    -0.22300
C575        C  0.23280064  0.45296864  0.52962494    -0.10400
C576        C  0.23704777  0.48006445  0.50871312     0.28500
F577        F  0.20435054  0.47951708  0.49699207    -0.20900
H578        H  0.27865723  0.03304560  0.48554089     0.16900
H579        H  0.26534218  0.43409581  0.55732828     0.16900
F580        F  0.33961513  0.98821177  0.54640990    -0.20900
C581        C  0.21564155  0.07259489  0.70807840    -0.22300
C582        C  0.20979884  0.10547851  0.70252485    -0.10400
C583        C  0.17326386  0.09866132  0.69069719     0.28500
C584        C  0.14331138  0.05943716  0.68409632    -0.22300
C585        C  0.14963697  0.02668569  0.68895984    -0.10400
C586        C  0.18584170  0.03339747  0.70135151     0.28500
F587        F  0.19364998  0.00267665  0.70533330    -0.20900
H588        H  0.24357342  0.07732134  0.71745940     0.16900
H589        H  0.11561500  0.05474042  0.67433227     0.16900
F590        F  0.16613784  0.12962236  0.68606916    -0.20900
C591        C  0.30848392  0.39220972  0.35008433    -0.22300
C592        C  0.31271594  0.35877862  0.35729343    -0.10400
C593        C  0.34539690  0.36450505  0.37387291     0.28500
C594        C  0.37463289  0.40345020  0.38155957    -0.22300
C595        C  0.37163631  0.43713261  0.37303031    -0.10400
C596        C  0.33786932  0.43117766  0.35770894     0.28500
F597        F  0.33323244  0.46280934  0.35007022    -0.20900
H598        H  0.28326992  0.38834361  0.33744069     0.16900
H599        H  0.40021255  0.40725818  0.39374266     0.16900
F600        F  0.35082528  0.33309821  0.38105773    -0.20900
C601        C  0.45886809  0.11181539  0.16980285    -0.22300
C602        C  0.43031504  0.11713355  0.18455704    -0.10400
C603        C  0.39125495  0.08371832  0.18915091     0.28500
C604        C  0.38234345  0.04495777  0.18110343    -0.22300
C605        C  0.41214736  0.03938317  0.16825423    -0.10400
C606        C  0.45021641  0.07333494  0.16202469     0.28500
F607        F  0.48021751  0.06927252  0.14999425    -0.20900
H608        H  0.48931180  0.13691581  0.16633720     0.16900
H609        H  0.35247343  0.01934320  0.18518721     0.16900
F610        F  0.36246190  0.08835443  0.20245413    -0.20900
C611        C  0.07871951  0.12113394  0.37157680    -0.22300
C612        C  0.11851439  0.12858997  0.36824401    -0.10400
C613        C  0.14857587  0.16562859  0.35741437     0.28500
C614        C  0.13866270  0.19466602  0.34963425    -0.22300
C615        C  0.09877208  0.18708405  0.35281435    -0.10400
C616        C  0.06878392  0.15016515  0.36388263     0.28500
F617        F  0.02955208  0.14125002  0.36586714    -0.20900
H618        H  0.05529693  0.09273533  0.38017069     0.16900
H619        H  0.16200126  0.22292914  0.34081016     0.16900
F620        F  0.18768019  0.17434385  0.35545010    -0.20900
C621        C  0.24658687  0.45681505  0.03998605    -0.22300
C622        C  0.28502860  0.46178530  0.03443712    -0.10400
C623        C  0.31513654  0.49784280  0.02241314     0.28500
C624        C  0.30658299  0.02830941  0.01582602    -0.22300
C625        C  0.26788254  0.02301143  0.02094772    -0.10400
C626        C  0.23795956  0.48712907  0.03333622     0.28500
F627        F  0.19980393  0.48035783  0.03774902    -0.20900
H628        H  0.22310375  0.42931655  0.04952404     0.16900
H629        H  0.32988206  0.05562214  0.00597900     0.16900
F630        F  0.35307836  0.50425853  0.01786382    -0.20900
C631        C  0.23334706  0.20076166  0.53015313    -0.22300
C632        C  0.26244450  0.19604172  0.51563207    -0.10400
C633        C  0.30010973  0.23022584  0.50911122     0.28500
C634        C  0.30791767  0.26872768  0.51635347    -0.22300
C635        C  0.27860489  0.27353033  0.53052781    -0.10400
C636        C  0.24123691  0.23915273  0.53759958     0.28500
F637        F  0.21227901  0.24251397  0.55175803    -0.20900
H638        H  0.20393059  0.17489659  0.53500865     0.16900
H639        H  0.33738726  0.29460832  0.51165449     0.16900
F640        F  0.32943960  0.22643714  0.49583687    -0.20900
C641        C  0.40019459  0.31525738  0.69806170    -0.22300
C642        C  0.42985216  0.35048083  0.68509395    -0.10400
C643        C  0.46851427  0.35560767  0.67978909     0.28500
C644        C  0.47693841  0.32527107  0.68668007    -0.22300
C645        C  0.44717857  0.28980505  0.69932068    -0.10400
C646        C  0.40869352  0.28494317  0.70510622     0.28500
F647        F  0.37923762  0.25076205  0.71733025    -0.20900
H648        H  0.36995352  0.31041523  0.70166677     0.16900
H649        H  0.50715281  0.33013204  0.68293432     0.16900
F650        F  0.49806283  0.38990208  0.66775735    -0.20900
C651        C  0.07176767  0.36913386  0.86266372    -0.22300
C652        C  0.10199000  0.36316428  0.85103838    -0.10400
C653        C  0.14095602  0.39660122  0.84610497     0.28500
C654        C  0.14931870  0.43552465  0.85287842    -0.22300
C655        C  0.11893752  0.44125192  0.86456292    -0.10400
C656        C  0.07998291  0.40788494  0.86915366     0.28500
F657        F  0.04978018  0.41281429  0.87991344    -0.20900
H658        H  0.04120647  0.34400518  0.86568662     0.16900
H659        H  0.17975210  0.46089103  0.84985738     0.16900
F660        F  0.17079144  0.39161223  0.83474505    -0.20900
C661        C  0.18599603  0.10128754  0.19893728    -0.22300
C662        C  0.15194833  0.07266128  0.18431022    -0.10400
C663        C  0.14747017  0.03452105  0.17800843     0.28500
C664        C  0.17745284  0.02577874  0.18575304    -0.22300
C665        C  0.21188357  0.05486554  0.19987598    -0.10400
C666        C  0.21595767  0.09271851  0.20647804     0.28500
F667        F  0.24925337  0.12180498  0.21987416    -0.20900
H668        H  0.19053263  0.13115220  0.20340065     0.16900
H669        H  0.17334023  0.99608701  0.18124896     0.16900
F670        F  0.11438746  0.00592827  0.16418072    -0.20900
C671        C  0.07432470  0.35500118  0.35814463    -0.22300
C672        C  0.06949696  0.38262517  0.37433527    -0.10400
C673        C  0.10394948  0.41910726  0.38283787     0.28500
C674        C  0.14230174  0.42848779  0.37401668    -0.22300
C675        C  0.14688021  0.40190446  0.35657190    -0.10400
C676        C  0.11283148  0.36432377  0.34950544     0.28500
F677        F  0.11663712  0.33714572  0.33357187    -0.20900
H678        H  0.04838928  0.32620461  0.35222895     0.16900
H679        H  0.16803145  0.45767425  0.37952718     0.16900
F680        F  0.10066082  0.44658111  0.39882578    -0.20900
C681        C  0.27415141  0.23766407  0.05829191    -0.22300
C682        C  0.23915401  0.20898910  0.04398287    -0.10400
C683        C  0.24320454  0.18712182  0.02225400     0.28500
C684        C  0.28156705  0.19559745  0.01404847    -0.22300
C685        C  0.31668774  0.22749642  0.02629242    -0.10400
C686        C  0.31267298  0.24695960  0.04956852     0.28500
F687        F  0.34561561  0.27663085  0.06287714    -0.20900
H688        H  0.27201272  0.25425657  0.07568650     0.16900
H689        H  0.28356986  0.17915052  0.99650599     0.16900
F690        F  0.21051593  0.15910041  0.00789408    -0.20900
C691        C  0.49816456  0.21527545  0.50188501    -0.22300
C692        C  0.50428549  0.25401380  0.50783489    -0.10400
C693        C  0.04028386  0.28291035  0.52080078     0.28500
C694        C  0.06880735  0.27238550  0.52882158    -0.22300
C695        C  0.06166326  0.23297300  0.52411394    -0.10400
C696        C  0.02644922  0.20456137  0.51021871     0.28500
F697        F  0.01790281  0.16579474  0.50624212    -0.20900
H698        H  0.47088726  0.19282581  0.49141984     0.16900
H699        H  0.09587723  0.29459558  0.53960104     0.16900
F700        F  0.04790891  0.32117295  0.52534169    -0.20900
C701        C  0.33817491  0.38595923  0.83120481    -0.22300
C702        C  0.34142344  0.42274728  0.83980875    -0.10400
C703        C  0.37488143  0.45006596  0.85554137     0.28500
C704        C  0.40354059  0.43980376  0.86368548    -0.22300
C705        C  0.39898131  0.40202734  0.85645134    -0.10400
C706        C  0.36680361  0.37563183  0.83930710     0.28500
F707        F  0.36134307  0.33886794  0.83183421    -0.20900
H708        H  0.31285934  0.36458352  0.81865307     0.16900
H709        H  0.42851293  0.46080166  0.87664357     0.16900
F710        F  0.37996247  0.48655389  0.86302633    -0.20900
C711        C  0.47873232  0.09157392  0.71096037    -0.22300
C712        C  0.48348008  0.06376682  0.69490807    -0.10400
C713        C  0.44965154  0.02538715  0.68926735     0.28500
C714        C  0.41100839  0.01672453  0.69727383    -0.22300
C715        C  0.40590941  0.04604734  0.71115368    -0.10400
C716        C  0.44027492  0.08317290  0.71874288     0.28500
F717        F  0.43675042  0.11259730  0.73210624    -0.20900
H718        H  0.50426411  0.12141471  0.71538010     0.16900
H719        H  0.38509548  0.98745064  0.69223431     0.16900
F720        F  0.45371872  0.99718457  0.67475409    -0.20900
C721        C  0.29383833  0.99934562  0.71631458     0.79200
N722        N  0.29118909  0.51832941  0.73963867    -0.79100
C723        C  0.32626164  0.54740385  0.75202547     0.81700
N724        N  0.36236248  0.55607088  0.74170292    -0.79000
C725        C  0.36540327  0.53757792  0.71923349     0.81800
N726        N  0.33120287  0.50924009  0.70645986    -0.80800
C727        C  0.08730553  0.63160538  0.66957189     0.79200
N728        N  0.08370570  0.61735176  0.64320966    -0.79100
C729        C  0.04819098  0.58390082  0.63483780     0.81700
N730        N  0.01713924  0.56531982  0.65261378    -0.79000
C731        C  0.02052827  0.57880143  0.67865275     0.81800
N732        N  0.05533236  0.61210188  0.68690513    -0.80800
C733        C  0.27934722  0.97262446  0.83148930     0.79200
N734        N  0.25949636  0.95483543  0.80732491    -0.79100
C735        C  0.26528441  0.92540255  0.79540005     0.81700
N736        N  0.29093697  0.91527049  0.80699021    -0.79000
C737        C  0.31084759  0.93273057  0.83026952     0.81800
N738        N  0.30505694  0.96132269  0.84256947    -0.80800
C739        C  0.44368624  0.83980535  0.87777809     0.79200
N740        N  0.45628486  0.85459541  0.90389190    -0.79100
C741        C  0.45183981  0.88618281  0.91327224     0.81700
N742        N  0.43491638  0.90200744  0.89690504    -0.79000
C743        C  0.42260158  0.88780998  0.87128876     0.81800
N744        N  0.42671209  0.85665374  0.86187041    -0.80800
C745        C  0.44482703  0.80567718  0.49772082     0.79200
N746        N  0.46976216  0.79386725  0.50934805    -0.79100
C747        C  0.47554585  0.76518699  0.49730163     0.81700
N748        N  0.45665366  0.74823519  0.47365836    -0.79000
C749        C  0.43179388  0.75893720  0.46151829     0.81800
N750        N  0.42580339  0.78835524  0.47324941    -0.80800
C751        C  0.10821396  0.67233876  0.54523584     0.79200
N752        N  0.09120360  0.68897282  0.52914604    -0.79100
C753        C  0.08709349  0.72024834  0.53833706     0.81700
N754        N  0.09941247  0.73484557  0.56386862    -0.79000
C755        C  0.11631793  0.71915475  0.58038564     0.81800
N756        N  0.12074872  0.68744973  0.57125783    -0.80800
C757        C  0.42186089  0.79856086  0.00297031     0.79200
N758        N  0.38880067  0.77882526  0.01954655    -0.79100
C759        C  0.35453548  0.74549217  0.01049254     0.81700
N760        N  0.35308026  0.73249008  0.98455885    -0.79000
C761        C  0.38479474  0.75140518  0.96750370     0.81800
N762        N  0.41977869  0.78471654  0.97660182    -0.80800
C763        C  0.12673820  0.66651499  0.04883673     0.79200
N764        N  0.16377847  0.67599161  0.03879125    -0.79100
C765        C  0.19838863  0.70316183  0.05167555     0.81700
N766        N  0.19600635  0.72158858  0.07448960    -0.79000
C767        C  0.16005474  0.71335915  0.08506745     0.81800
N768        N  0.12465448  0.68489097  0.07263059    -0.80800
C769        C  0.45763669  0.83255750  0.38284203     0.79200
N770        N  0.49463582  0.84406295  0.37169749    -0.79100
C771        C  0.02918315  0.87288110  0.38389984     0.81700
N772        N  0.02685504  0.88999486  0.40730473    -0.79000
C773        C  0.49103612  0.87967171  0.41899668     0.81800
N774        N  0.45564542  0.85023112  0.40706107    -0.80800
C775        C  0.25409924  0.96588211  0.33525995     0.79200
N776        N  0.25215654  0.95099636  0.30923052    -0.79100
C777        C  0.21626531  0.91902446  0.29979825     0.81700
N778        N  0.18341374  0.90277555  0.31606351    -0.79000
C779        C  0.18503838  0.91681896  0.34165505     0.81800
N780        N  0.22013863  0.94860241  0.35108174    -0.80800
C781        C  0.10555560  0.63476340  0.16672712     0.79200
N782        N  0.12338241  0.61766166  0.18145043    -0.79100
C783        C  0.12536929  0.58552261  0.17153700     0.81700
N784        N  0.11019174  0.57074258  0.14654149    -0.79000
C785        C  0.09239401  0.58685805  0.13125948     0.81800
N786        N  0.09002263  0.61940667  0.14113526    -0.80800
C787        C  0.27025321  0.50290843  0.21284288     0.79200
N788        N  0.28741265  0.51987121  0.23777555    -0.79100
C789        C  0.28096608  0.54936137  0.24880060     0.81700
N790        N  0.25746697  0.56063449  0.23547256    -0.79000
C791        C  0.24043413  0.54423798  0.21122861     0.81800
N792        N  0.24645029  0.51516888  0.19997048    -0.80800
C793        C  0.04105378  0.75433499  0.83471008     0.79200
N794        N  0.05663083  0.75397539  0.80928205    -0.79100
C795        C  0.08925632  0.78886634  0.79935799     0.81700
N796        N  0.10521799  0.82299909  0.81440897    -0.79000
C797        C  0.09013167  0.82370677  0.83918070     0.81800
N798        N  0.05794866  0.78956740  0.84917855    -0.80800
C799        C  0.17105851  0.55129739  0.87907484     0.79200
N800        N  0.15852253  0.51562920  0.86565511    -0.79100
C801        C  0.12916230  0.98030725  0.87634894     0.81700
N802        N  0.11271141  0.98012068  0.90075891    -0.79000
C803        C  0.12436310  0.51449252  0.91476752     0.81800
N804        N  0.15411191  0.55075508  0.90414255    -0.80800
C805        C  0.37341340  0.90359127  0.66837611     0.79200
N806        N  0.38907053  0.91840893  0.64283413    -0.79100
C807        C  0.41954993  0.91286286  0.63257542     0.81700
N808        N  0.43330328  0.89255682  0.64739618    -0.79000
C809        C  0.41818450  0.87789817  0.67237490     0.81800
N810        N  0.38803988  0.88301043  0.68274383    -0.80800
C811        C  0.00465623  0.73740600  0.71335624     0.79200
N812        N  0.48884820  0.72072668  0.73860711    -0.79100
C813        C  0.45754573  0.72461513  0.74925021     0.81700
N814        N  0.44333589  0.74523776  0.73523028    -0.79000
C815        C  0.45870936  0.76182354  0.71072506     0.81800
N816        N  0.48953219  0.75824076  0.69993355    -0.80800
C817        C  0.20484797  0.58652762  0.50067802     0.79200
N818        N  0.22008801  0.62224605  0.51434982    -0.79100
C819        C  0.25128484  0.65664974  0.50396209     0.81700
N820        N  0.26717015  0.65568457  0.47954962    -0.79000
C821        C  0.25308062  0.62101201  0.46527886     0.81800
N822        N  0.22123711  0.58577745  0.47559656    -0.80800
C823        C  0.33427835  0.88389063  0.54499683     0.79200
N824        N  0.31776408  0.88390952  0.57011145    -0.79100
C825        C  0.28679175  0.84822707  0.58049549     0.81700
N826        N  0.27347354  0.81374921  0.56631220    -0.79000
C827        C  0.28948121  0.81313858  0.54193962     0.81800
N828        N  0.32005339  0.84805921  0.53136168    -0.80800
C829        C  0.20947656  0.57311562  0.00265633     0.79200
N830        N  0.22549322  0.55450979  0.01773123    -0.79100
C831        C  0.25671083  0.55059094  0.00803069     0.81700
N832        N  0.27214908  0.56517737  0.98302469    -0.79000
C833        C  0.25714736  0.58372453  0.96740794     0.81800
N834        N  0.22523287  0.58759509  0.97701387    -0.80800
C835        C  0.33872273  0.90503989  0.04704029     0.79200
N836        N  0.32129320  0.88655587  0.07157757    -0.79100
C837        C  0.28994540  0.89056425  0.08217027     0.81700
N838        N  0.27751540  0.91328296  0.06878790    -0.79000
C839        C  0.29486016  0.93198127  0.04510784     0.81800
N840        N  0.32530452  0.92783683  0.03431262    -0.80800
C841        C  0.17265984  0.57269020  0.38200371     0.79200
N842        N  0.15914110  0.59516807  0.36893641    -0.79100
C843        C  0.12923130  0.60007641  0.37983796     0.81700
N844        N  0.11264136  0.58272722  0.40397352    -0.79000
C845        C  0.12519920  0.56034327  0.41764698     0.81800
N846        N  0.15589109  0.55537026  0.40692851    -0.80800
C847        C  0.04102576  0.73798136  0.33475950     0.79200
N848        N  0.05644174  0.71866372  0.34969146    -0.79100
C849        C  0.08727104  0.71421994  0.33988979     0.81700
N850        N  0.10277707  0.72867881  0.31496010    -0.79000
C851        C  0.08823363  0.74772265  0.29951026     0.81800
N852        N  0.05679604  0.75234140  0.30914399    -0.80800
C853        C  0.99908932  0.72037934  0.21035503     0.79200
N854        N  0.48473734  0.71691612  0.23657320    -0.79100
C855        C  0.45046701  0.68188002  0.24461711     0.81700
N856        N  0.43128438  0.65120280  0.22654658    -0.79000
C857        C  0.44501925  0.65447927  0.20058526     0.81800
N858        N  0.47904436  0.68882497  0.19270008    -0.80800
C859        C  0.36774513  0.92753581  0.16364667     0.79200
N860        N  0.38672382  0.92506990  0.14025092    -0.79100
C861        C  0.41456328  0.96008185  0.12728686     0.81700
N862        N  0.42192628  0.99604747  0.13713959    -0.79000
C863        C  0.40339300  0.99893586  0.15971497     0.81800
N864        N  0.37622570  0.96473321  0.17299039    -0.80800
C865        C  0.26837050  0.75204106  0.33579965     0.79200
N866        N  0.25552956  0.75403490  0.30972053    -0.79100
C867        C  0.25967356  0.78993041  0.30031216     0.81700
N868        N  0.27650959  0.82274645  0.31662772    -0.79000
C869        C  0.28914928  0.82116243  0.34218954     0.81800
N870        N  0.28530634  0.78598465  0.35164559    -0.80800
C871        C  0.43290301  0.54878074  0.38188880     0.79200
N872        N  0.45274930  0.55080450  0.40604680    -0.79100
C873        C  0.44737931  0.51559109  0.41768170     0.81700
N874        N  0.42338453  0.98034334  0.40517355    -0.79000
C875        C  0.40372827  0.97809834  0.38180441     0.81800
N876        N  0.40749987  0.51183454  0.37062083    -0.80800
C877        C  0.26744942  0.71629550  0.71363767     0.79200
N878        N  0.28658480  0.71801283  0.73809123    -0.79100
C879        C  0.28205648  0.68283866  0.74930173     0.81700
N880        N  0.25827309  0.64731595  0.73661096    -0.79000
C881        C  0.23902364  0.64527972  0.71303224     0.81800
N882        N  0.24355836  0.67962965  0.70158393    -0.80800
C883        C  0.10062189  0.91860741  0.66974695     0.79200
N884        N  0.08644197  0.92020482  0.64402420    -0.79100
C885        C  0.09032499  0.95605942  0.63468894     0.81700
N886        N  0.10848934  0.98925763  0.65061586    -0.79000
C887        C  0.12277725  0.98807647  0.67567542     0.81800
N888        N  0.11903116  0.95297251  0.68512155    -0.80800
C889        C  0.42125442  0.56842219  0.49984206     0.79200
N890        N  0.42238551  0.58563803  0.47476058    -0.79100
C891        C  0.38682810  0.58025512  0.46350922     0.81700
N892        N  0.35161553  0.55748720  0.47670782    -0.79000
C893        C  0.35020180  0.54034504  0.50102843     0.81800
N894        N  0.38496508  0.54596694  0.51255916    -0.80800
C895        C  0.12326717  0.90298659  0.54643974     0.79200
N896        N  0.15881667  0.92373200  0.53243484    -0.79100
C897        C  0.19395398  0.92863955  0.54307357     0.81700
N898        N  0.19364476  0.91299263  0.56778809    -0.79000
C899        C  0.15931722  0.89243679  0.58220778     0.81800
N900        N  0.12350778  0.88738317  0.57181159    -0.80800
C901        C  0.28668166  0.72990146  0.21100306     0.79200
N902        N  0.32072424  0.74680033  0.19529428    -0.79100
C903        C  0.35585909  0.75035520  0.20473301     0.81700
N904        N  0.35721256  0.73725930  0.23018572    -0.79000
C905        C  0.32423717  0.72033204  0.24636594     0.81800
N906        N  0.28843644  0.71664855  0.23696112    -0.80800
C907        C  0.08435853  0.89626147  0.16522174     0.79200
N908        N  0.04744954  0.87113320  0.17656994    -0.79100
C909        C  0.01285285  0.86566735  0.16469574     0.81700
N910        N  0.01508155  0.88561691  0.14150831    -0.79000
C911        C  0.05084257  0.91083144  0.12964230     0.81800
N912        N  0.08620221  0.91604380  0.14114593    -0.80800
C913        C  0.43479295  0.58541469  0.00114702     0.79200
N914        N  0.42383024  0.58819023  0.97469587    -0.79100
C915        C  0.42734583  0.62394103  0.96571211     0.81700
N916        N  0.44125332  0.65564809  0.98283406    -0.79000
C917        C  0.45160422  0.65321881  0.00888413     0.81800
N918        N  0.44877342  0.61827795  0.01791087    -0.80800
C919        C  0.09598848  0.88005014  0.04977919     0.79200
N920        N  0.11676627  0.88208452  0.07344466    -0.79100
C921        C  0.11027938  0.84674556  0.08551406     0.81700
N922        N  0.08289138  0.81094683  0.07469312    -0.79000
C923        C  0.06188104  0.80855387  0.05199411     0.81800
N924        N  0.06863225  0.84306950  0.03945988    -0.80800
C925        C  0.25386229  0.73265187  0.83133931     0.79200
N926        N  0.21708603  0.70760172  0.84277863    -0.79100
C927        C  0.18238328  0.70135467  0.83070736     0.81700
N928        N  0.18435751  0.72057199  0.80727383    -0.79000
C929        C  0.21995785  0.74573969  0.79532807     0.81800
N930        N  0.25551525  0.75174290  0.80698397    -0.80800
C931        C  0.45677507  0.56858996  0.87857462     0.79200
N932        N  0.49134444  0.58648551  0.86334287    -0.79100
C933        C  0.02597953  0.58911696  0.87280654     0.81700
N934        N  0.02674904  0.57554503  0.89813932    -0.79000
C935        C  0.49366070  0.55848204  0.91407836     0.81800
N936        N  0.45792029  0.55453756  0.90436821    -0.80800
O937        O  0.36380871  0.58949099  0.78890603    -0.81100
O938        O  0.23106034  0.61565024  0.88636231    -0.82700
O939        O  0.27236315  0.53125397  0.82690960    -0.79700
O940        O  0.28374513  0.64456806  0.78708772    -0.78100
O941        O  0.33210784  0.71192510  0.78433104    -0.79900
O942        O  0.30129409  0.52318862  0.86598074    -0.80800
O943        O  0.22305911  0.58148462  0.84593052    -0.82100
O944        O  0.29644962  0.57037937  0.78492162    -0.82400
Eu945      Eu  0.29081242  0.60361373  0.82534189     2.39200
O946        O  0.30648017  0.66745381  0.84117867    -0.89900
O947        O  0.34207662  0.59064014  0.84137278    -0.93500
C948        C  0.32830250  0.56985961  0.77700701     1.01100
C949        C  0.20973473  0.58646740  0.86932824     1.01000
C950        C  0.28249234  0.51043309  0.84264219     1.00900
C951        C  0.30027380  0.68020704  0.77544437     0.98800
H952        H  0.26836524  0.57898759  0.88122941     0.28500
O953        O  0.29228812  0.60200077  0.87385059    -1.02300
H954        H  0.35588078  0.65322004  0.79008713     0.28500
O955        O  0.35588081  0.65340924  0.80992133    -1.04900
O956        O  0.34370597  0.71316984  0.92934944    -0.82100
O957        O  0.47911721  0.69156095  0.82781194    -0.81600
O958        O  0.29642684  0.58239126  0.92945683    -0.80100
O959        O  0.31932088  0.73917056  0.82655148    -0.83400
O960        O  0.41895995  0.72495492  0.78713142    -0.81300
O961        O  0.39382371  0.56705584  0.88633139    -0.79900
O962        O  0.42900348  0.66547670  0.92852867    -0.81400
O963        O  0.44460457  0.77840492  0.88605317    -0.83400
O964        O  0.38317508  0.59705088  0.92872989    -0.80100
O965        O  0.41732978  0.78577344  0.84591390    -0.82800
O966        O  0.27360844  0.62795227  0.92999353    -0.78500
O967        O  0.42858691  0.59388828  0.84626157    -0.78500
O968        O  0.43827033  0.67682569  0.78496850    -0.78200
O969        O  0.28145386  0.70875111  0.86500393    -0.81700
O970        O  0.41227752  0.73610249  0.92968359    -0.81100
O971        O  0.48726793  0.72819624  0.86700215    -0.79400
Eu972      Eu  0.30478416  0.66660969  0.88937259     2.39800
Eu973      Eu  0.40610087  0.63909704  0.82581227     2.39600
Eu974      Eu  0.34277768  0.58952080  0.88943059     2.38400
Eu975      Eu  0.37108830  0.71825452  0.82524123     2.39900
Eu976      Eu  0.42047341  0.70490806  0.88944499     2.39800
O977        O  0.42018026  0.70378043  0.84125184    -0.93900
O978        O  0.35611977  0.65376742  0.90424254    -0.92700
C979        C  0.38015987  0.73339494  0.94008357     1.01300
C980        C  0.50059774  0.72160349  0.84414133     1.00000
C981        C  0.27623472  0.59847564  0.94032976     0.99400
C982        C  0.28824408  0.72877089  0.84215430     1.01400
C983        C  0.43798997  0.70815194  0.77576630     1.00400
C984        C  0.42301692  0.57484108  0.86937416     0.99200
C985        C  0.41313032  0.62895510  0.93886936     0.99300
C986        C  0.43694587  0.79960407  0.86889708     1.01900
H987        H  0.43036439  0.64090998  0.88126888     0.29200
O988        O  0.40729905  0.64187171  0.87406220    -1.06000
H989        H  0.36952223  0.74113150  0.88105838     0.31300
O990        O  0.36806340  0.71695943  0.87378103    -1.08600
O991        O  0.45013277  0.92578668  0.95082244    -0.81100
O992        O  0.10471225  0.94647575  0.05394778    -0.82700
O993        O  0.08306750  0.97439025  0.95201556    -0.79700
O994        O  0.48339447  0.86118309  0.99453835    -0.78100
O995        O  0.44866819  0.85345768  0.03461177    -0.79900
O996        O  0.10468644  0.54243942  0.95021630    -0.80800
O997        O  0.07506224  0.90906242  0.01513557    -0.82100
O998        O  0.49603638  0.90328851  0.95061157    -0.82400
Eu999      Eu  0.03467688  0.93454423  0.99102081     2.39200
O1000       O  0.03523626  0.93661177  0.03911781    -0.89900
O1001       O  0.02223627  0.98580855  0.97588178    -0.93500
C1002       C  0.46628233  0.90548219  0.94025551     1.01100
C1003       C  0.09398294  0.91519112  0.03842218     1.01000
C1004       C  0.10326021  0.01046287  0.94084131     1.00900
C1005       C  0.45448558  0.83966038  0.01167780     0.98800
H1006       H  0.10986807  0.99879344  0.99939678     0.28500
O1007       O  0.08565332  0.99762276  0.00645114    -1.02300
H1008       H  0.44722147  0.89870823  0.99898131     0.28500
O1009       O  0.47022864  0.92280001  0.00626523    -1.04900
O1010       O  0.09367182  0.54851393  0.09335538    -0.82100
O1011       O  0.43462261  0.52329199  0.99301564    -0.81600
O1012       O  0.14745002  0.57339640  0.99418483    -0.80100
O1013       O  0.51255059  0.91387547  0.09243809    -0.83400
O1014       O  0.39847607  0.89987655  0.05290297    -0.81300
O1015       O  0.03420899  0.55858839  0.95140150    -0.79900
O1016       O  0.05995415  0.60915894  0.05256706    -0.81400
O1017       O  0.45735218  0.49721524  0.09059472    -0.83400
O1018       O  0.09842100  0.61582355  0.01464202    -0.80100
O1019       O  0.43862353  0.93022303  0.09490494    -0.82800
O1020       O  0.15494923  0.54651430  0.03442267    -0.78500
O1021       O  0.46579442  0.51263847  0.95032993    -0.78500
O1022       O  0.39222402  0.93142328  0.01466943    -0.78200
O1023       O  0.08019644  0.96181599  0.09559356    -0.81700
O1024       O  0.04583801  0.56841564  0.09467562    -0.81100
O1025       O  0.46213475  0.55865991  0.03287257    -0.79400
Eu1026     Eu  0.08680769  0.00078502  0.05494941     2.39800
Eu1027     Eu  0.45799837  0.97315715  0.99029862     2.39600
Eu1028     Eu  0.07364126  0.54998418  0.99058382     2.38400
Eu1029     Eu  0.47145205  0.92170674  0.05480317     2.39900
Eu1030     Eu  0.00748838  0.53661392  0.05368902     2.39800
O1031       O  0.45869077  0.97282020  0.03838685    -0.93900
O1032       O  0.07197273  0.54945199  0.03864990    -0.92700
C1033       C  0.07682619  0.56773432  0.10438768     1.01300
C1034       C  0.44238118  0.55249159  0.00995470     1.00000
C1035       C  0.16886399  0.56600835  0.01143742     0.99400
C1036       C  0.04829975  0.92995517  0.10408892     1.01400
C1037       C  0.37816202  0.91056710  0.03714380     1.00400
C1038       C  0.99783386  0.54273451  0.94057033     0.99200
C1039       C  0.09168367  0.62926099  0.03740236     0.99300
C1040       C  0.43768710  0.96199191  0.10254055     1.01900
H1041       H  0.00927984  0.56061865  0.99809743     0.29200
O1042       O  0.01041279  0.53772991  0.00538722    -1.06000
H1043       H  0.02140522  0.98669309  0.08975140     0.31300
O1044       O  0.02176709  0.98658862  0.06994768    -1.08600
O1045       O  0.42870234  0.71750458  0.42451064    -0.81100
O1046       O  0.26746519  0.68951857  0.32761577    -0.82700
O1047       O  0.39187593  0.77389289  0.38727015    -0.79700
O1048       O  0.29199455  0.66021929  0.42727238    -0.78100
O1049       O  0.27321670  0.59292287  0.42950503    -0.79900
O1050       O  0.42942336  0.78179209  0.34854430    -0.80800
O1051       O  0.29361056  0.72356279  0.36809088    -0.82100
O1052       O  0.37977320  0.73567814  0.42818653    -0.82400
Eu1053     Eu  0.33930386  0.70134535  0.38855681     2.39200
O1054       O  0.29082412  0.63757260  0.37285648    -0.89900
O1055       O  0.40352339  0.71483827  0.37212201    -0.93500
C1056       C  0.41243639  0.73684160  0.43617937     1.01100
C1057       C  0.27484513  0.71834305  0.34480601     1.01000
C1058       C  0.42296872  0.79467348  0.37168188     1.00900
C1059       C  0.27315367  0.62439716  0.43873556     0.98800
H1060       H  0.34127374  0.72618166  0.33278808     0.28500
O1061       O  0.34242673  0.70328550  0.34005105    -1.02300
H1062       H  0.35599723  0.65248522  0.42362684     0.28500
O1063       O  0.35550252  0.65224135  0.40379914    -1.04900
O1064       O  0.28267695  0.59066154  0.28592989    -0.82100
O1065       O  0.43981070  0.61444192  0.38658579    -0.81600
O1066       O  0.36533773  0.72297913  0.28443921    -0.80100
O1067       O  0.23271931  0.56794252  0.38767938    -0.83400
O1068       O  0.34760993  0.58058873  0.42592516    -0.81300
O1069       O  0.47952880  0.73977375  0.32679548    -0.79900
O1070       O  0.41298909  0.64006126  0.28301619    -0.81400
O1071       O  0.31652823  0.52767349  0.32712625    -0.83400
O1072       O  0.43517655  0.70832525  0.28300000    -0.80100
O1073       O  0.28248749  0.51956845  0.36759016    -0.82800
O1074       O  0.29710428  0.67608455  0.28367221    -0.78500
O1075       O  0.48776076  0.71323168  0.36691733    -0.78500
O1076       O  0.41501249  0.62939669  0.42838894    -0.78200
O1077       O  0.22415342  0.59586580  0.34833760    -0.81700
O1078       O  0.32897310  0.56874591  0.28405096    -0.81100
O1079       O  0.40979566  0.57687481  0.34789858    -0.79400
Eu1080     Eu  0.29013441  0.63866255  0.32470372     2.39800
Eu1081     Eu  0.42028431  0.66743737  0.38760562     2.39600
Eu1082     Eu  0.40548994  0.71621300  0.32407058     2.38400
Eu1083     Eu  0.30539593  0.58728963  0.38844160     2.39900
Eu1084     Eu  0.36806012  0.60113679  0.32392929     2.39800
O1085       O  0.36915952  0.60293723  0.37206313    -0.93900
O1086       O  0.35426363  0.65188940  0.30976836    -0.92700
C1087       C  0.29835066  0.57029769  0.27478436     1.01300
C1088       C  0.42935062  0.58331827  0.37097060     1.00000
C1089       C  0.32895238  0.70613136  0.27349731     0.97000
C1090       C  0.21140345  0.57705973  0.37163327     1.01400
C1091       C  0.38356678  0.59751910  0.43731591     1.00400
C1092       C  0.50117368  0.73230018  0.34380181     0.99200
C1093       C  0.43250577  0.67645356  0.27223679     0.99300
C1094       C  0.28766254  0.50615585  0.34428081     1.01900
H1095       H  0.44275673  0.66561754  0.33148033     0.29200
O1096       O  0.41880244  0.66439256  0.33906751    -1.06000
H1097       H  0.28041661  0.56494013  0.33293565     0.31300
O1098       O  0.30364468  0.58892546  0.34002982    -1.08600
O1099       O  0.22736602  0.94150776  0.72027202    -0.81100
O1100       O  0.24677763  0.80827118  0.61798156    -0.82700
O1101       O  0.31271141  0.90635220  0.66069701    -0.79700
O1102       O  0.19927987  0.89190134  0.61939358    -0.78100
O1103       O  0.13088899  0.84580597  0.61797134    -0.79900
O1104       O  0.32074960  0.88000713  0.70093968    -0.80800
O1105       O  0.26989905  0.87668923  0.61714354    -0.82100
O1106       O  0.26505483  0.94929543  0.68168912    -0.82400
Eu1107     Eu  0.23905730  0.88333708  0.65787294     2.39200
O1108       O  0.18762286  0.81933096  0.64268708    -0.89900
O1109       O  0.23742945  0.88234252  0.70582739    -0.93500
C1110       C  0.25877488  0.96210742  0.70484407     1.01100
C1111       C  0.26721872  0.84446891  0.60709439     1.01000
C1112       C  0.33412296  0.89870606  0.67774705     1.00900
C1113       C  0.16305011  0.87612848  0.60848325     0.98800
H1114       H  0.27543201  0.83205859  0.66532431     0.28500
O1115       O  0.25134206  0.83087313  0.67263012    -1.02300
H1116       H  0.17463478  0.89365860  0.66653056     0.28500
O1117       O  0.17595758  0.87075840  0.67354327    -1.04900
O1118       O  0.14874008  0.69428930  0.66055120    -0.82100
O1119       O  0.12679305  0.82828158  0.76106893    -0.81600
O1120       O  0.27295695  0.78131487  0.71896608    -0.80100
O1121       O  0.11531231  0.75931465  0.61787266    -0.83400
O1122       O  0.09975583  0.85617252  0.66133394    -0.81300
O1123       O  0.26136765  0.88360193  0.75833445    -0.79900
O1124       O  0.18112361  0.74798211  0.75829131    -0.81400
O1125       O  0.06553360  0.73470977  0.71969271    -0.83400
O1126       O  0.24856929  0.79638594  0.76136171    -0.80100
O1127       O  0.05717359  0.76286799  0.68040025    -0.82800
O1128       O  0.24243129  0.74365061  0.68040052    -0.78500
O1129       O  0.21331157  0.90293720  0.76191520    -0.78500
O1130       O  0.12697883  0.89069734  0.70154028    -0.78200
O1131       O  0.16067659  0.73616008  0.61741275    -0.81700
O1132       O  0.11495416  0.68650183  0.70104329    -0.81100
O1133       O  0.10705367  0.76067113  0.76263574    -0.79400
Eu1134     Eu  0.20016428  0.76787933  0.65734655     2.39800
Eu1135     Eu  0.17320779  0.86908560  0.72197318     2.39600
Eu1136     Eu  0.25311033  0.83411032  0.72096886     2.38400
Eu1137     Eu  0.12350525  0.80629797  0.65773544     2.39900
Eu1138     Eu  0.13815324  0.75458180  0.72134710     2.39800
O1139       O  0.12432296  0.80543065  0.70594798    -0.93900
O1140       O  0.20176146  0.76962684  0.70537153    -0.92700
C1141       C  0.12018538  0.67275335  0.67790442     1.01300
C1142       C  0.10794042  0.79234606  0.77234890     1.00000
C1143       C  0.26262541  0.75034715  0.70321141     0.99400
C1144       C  0.13105157  0.73868864  0.60721805     1.01400
C1145       C  0.10738898  0.88502937  0.67854161     1.00400
C1146       C  0.24555598  0.90333289  0.77006421     0.99200
C1147       C  0.21697886  0.76435820  0.76980665     0.99300
C1148       C  0.04418369  0.74348763  0.70344367     1.01900
H1149       H  0.18898723  0.81930246  0.75675123     0.29200
O1150       O  0.18845053  0.81923752  0.73693562    -1.06000
H1151       H  0.11276980  0.73182630  0.66581157     0.31300
O1152       O  0.13591115  0.75583684  0.67302385    -1.08600
O1153       O  0.19790118  0.75524707  0.12204379    -0.81100
O1154       O  0.06284047  0.78095082  0.21958540    -0.82700
O1155       O  0.10300727  0.69565083  0.16045484    -0.79700
O1156       O  0.11460005  0.80880082  0.12212746    -0.78100
O1157       O  0.16283829  0.87608928  0.11862588    -0.79900
O1158       O  0.13338660  0.68856902  0.19906877    -0.80800
O1159       O  0.05510553  0.74582661  0.17971029    -0.82100
O1160       O  0.13035042  0.73560876  0.11862196    -0.82400
Eu1161     Eu  0.12324927  0.76805296  0.15919718     2.39200
O1162       O  0.13860311  0.83196211  0.17463164    -0.89900
O1163       O  0.17503407  0.75578888  0.17488609    -0.93500
C1164       C  0.16230528  0.73552260  0.11032776     1.01100
C1165       C  0.04110376  0.75214300  0.20239874     1.01000
C1166       C  0.11286918  0.67489605  0.17636934     1.00900
C1167       C  0.13050164  0.84431501  0.11049666     0.98800
H1168       H  0.10019924  0.74368973  0.21481459     0.28500
O1169       O  0.12446594  0.76651804  0.20759514    -1.02300
H1170       H  0.18787094  0.81790803  0.12384357     0.28500
O1171       O  0.18812808  0.81817153  0.14366300    -1.04900
O1172       O  0.17543007  0.87903133  0.26215458    -0.82100
O1173       O  0.31105601  0.86024376  0.16031256    -0.81600
O1174       O  0.12832448  0.74708014  0.26214652    -0.80100
O1175       O  0.14998659  0.90277646  0.16028545    -0.83400
O1176       O  0.25048140  0.88994262  0.12008254    -0.81300
O1177       O  0.22470871  0.73001841  0.21935464    -0.79900
O1178       O  0.26120030  0.83101193  0.26265980    -0.81400
O1179       O  0.27519649  0.94339526  0.21989624    -0.83400
O1180       O  0.21518189  0.76264371  0.26310144    -0.80100
O1181       O  0.24837714  0.95086606  0.17952895    -0.82800
O1182       O  0.10566102  0.79276823  0.26291192    -0.78500
O1183       O  0.26025637  0.75821435  0.17971555    -0.78500
O1184       O  0.27006107  0.84199970  0.11779783    -0.78200
O1185       O  0.11236529  0.87260048  0.19882386    -0.81700
O1186       O  0.24389614  0.90147797  0.26312832    -0.81100
O1187       O  0.31919025  0.89742537  0.19925249    -0.79400
Eu1188     Eu  0.13684975  0.83124219  0.22270336     2.39800
Eu1189     Eu  0.23900241  0.80456558  0.15928660     2.39600
Eu1190     Eu  0.17567479  0.75471750  0.22288729     2.38400
Eu1191     Eu  0.20297880  0.88309970  0.15875404     2.39900
Eu1192     Eu  0.25280631  0.87017767  0.22316654     2.39800
O1193       O  0.25165189  0.86844733  0.17506707    -0.93900
O1194       O  0.18846627  0.81880502  0.23764988    -0.92700
C1195       C  0.21178234  0.89945453  0.27299287     1.01300
C1196       C  0.33159324  0.89179811  0.17569261     1.00000
C1197       C  0.10793043  0.76299067  0.27290019     0.99400
C1198       C  0.11888464  0.89236227  0.17592233     1.01400
C1199       C  0.26957057  0.87326496  0.10854284     1.00400
C1200       C  0.25378321  0.73776990  0.20233439     0.99200
C1201       C  0.24507670  0.79462748  0.27332471     0.99300
C1202       C  0.26694021  0.96435421  0.20289042     1.01900
H1203       H  0.26346119  0.80556458  0.21502586     0.29200
O1204       O  0.24070723  0.80712197  0.20776336    -1.06000
H1205       H  0.20079011  0.90547550  0.21449100     0.31300
O1206       O  0.19999036  0.88157883  0.20726771    -1.08600
O1207       O  0.50675372  0.54481965  0.59691045    -0.81100
O1208       O  0.14439535  0.52232394  0.49475424    -0.82700
O1209       O  0.09181681  0.49710311  0.59710041    -0.79700
O1210       O  0.10894229  0.61079747  0.55400265    -0.78100
O1211       O  0.08263767  0.61829806  0.51347061    -0.79900
O1212       O  0.04578239  0.92879032  0.59742264    -0.80800
O1213       O  0.15105755  0.56037689  0.53298004    -0.82100
O1214       O  0.07536341  0.56806843  0.59719611    -0.82400
Eu1215     Eu  0.08514036  0.53712746  0.55729808     2.39200
O1216       O  0.08493106  0.53566772  0.50916665    -0.89900
O1217       O  0.02056107  0.98589532  0.57124287    -0.93500
C1218       C  0.04314825  0.56524762  0.60757725     1.01100
C1219       C  0.16498696  0.55325234  0.51051122     1.01000
C1220       C  0.07552929  0.96076039  0.60776099     1.00900
C1221       C  0.10168427  0.63208019  0.53661611     0.98800
H1222       H  0.09585066  0.97374698  0.54903425     0.28500
O1223       O  0.07277664  0.97452602  0.54160481    -1.02300
H1224       H  0.03421000  0.57330834  0.54873970     0.28500
O1225       O  0.03279449  0.54910156  0.54148172    -1.04900
O1226       O  0.02965638  0.92158590  0.45597527    -0.82100
O1227       O  0.39509974  0.94787068  0.55244846    -0.81600
O1228       O  0.05972462  0.90017355  0.55382184    -0.80100
O1229       O  0.08513529  0.55944107  0.45511502    -0.83400
O1230       O  0.48566845  0.57277011  0.49456098    -0.81300
O1231       O  0.45984408  0.91302435  0.59526797    -0.79900
O1232       O  0.43691122  0.86379673  0.49347899    -0.81400
O1233       O  0.44974225  0.97761510  0.45481349    -0.83400
O1234       O  0.46745001  0.85640354  0.53191628    -0.80100
O1235       O  0.49804423  0.54467934  0.45214494    -0.82800
O1236       O  0.09421730  0.92659481  0.51361720    -0.78500
O1237       O  0.43732995  0.95884113  0.59633653    -0.78500
O1238       O  0.44757402  0.54256425  0.53295561    -0.78200
O1239       O  0.10420826  0.51116760  0.45277300    -0.81700
O1240       O  0.46216812  0.90266458  0.45244375    -0.81100
O1241       O  0.38796509  0.91255703  0.51272770    -0.79400
Eu1242     Eu  0.07147944  0.47139277  0.49314405     2.39800
Eu1243     Eu  0.46910649  0.99870195  0.55644074     2.39600
Eu1244     Eu  0.00812489  0.92193611  0.55653257     2.38400
Eu1245     Eu  0.03644743  0.55074422  0.49303337     2.39900
Eu1246     Eu  0.45631398  0.93618378  0.49260043     2.39800
O1247       O  0.47118929  0.00001017  0.50823137    -0.93900
O1248       O  0.00752250  0.92297074  0.50855671    -0.92700
C1249       C  0.99391034  0.90196817  0.44431446     1.01300
C1250       C  0.37400256  0.91824981  0.53561084     1.00000
C1251       C  0.08896298  0.90804113  0.53689018     0.99400
C1252       C  0.10438450  0.54286673  0.44378617     1.01400
C1253       C  0.45484830  0.56299377  0.51026694     1.00400
C1254       C  0.43940014  0.92877571  0.60609227     0.99200
C1255       C  0.44781545  0.84333107  0.50888130     0.99300
C1256       C  0.46641798  0.01326944  0.44325742     1.01900
H1257       H  0.43319060  0.91133618  0.54806454     0.29200
O1258       O  0.45734323  0.93435046  0.54097998    -1.06000
H1259       H  0.02167044  0.98611528  0.45750830     0.31300
O1260       O  0.02146704  0.98612497  0.47731784    -1.08600
C1261       C  0.10739968  0.66697804  0.82767534    -0.22300
C1262       C  0.14235040  0.67088559  0.84068080    -0.10400
C1263       C  0.13821506  0.64424185  0.86186262     0.28500
C1264       C  0.09979622  0.61533311  0.87049828    -0.22300
C1265       C  0.06485617  0.61314646  0.85874505    -0.10400
C1266       C  0.06890249  0.63832418  0.83654071     0.28500
F1267       F  0.03609667  0.63673489  0.82415245    -0.20900
H1268       H  0.10963476  0.68668319  0.81090032     0.16900
H1269       H  0.09764603  0.59575336  0.88733604     0.16900
F1270       F  0.17099265  0.64633506  0.87462400    -0.20900
C1271       C  0.02751076  0.73365819  0.05522350    -0.22300
C1272       C  0.03020641  0.76837381  0.04284532    -0.10400
C1273       C  0.00208134  0.76384491  0.02255548     0.28500
C1274       C  0.47292182  0.72544348  0.01406181    -0.22300
C1275       C  0.47268156  0.69092803  0.02461877    -0.10400
C1276       C  0.99929099  0.69513695  0.04606206     0.28500
F1277       F  0.00001166  0.66269111  0.05696687    -0.20900
H1278       H  0.04840264  0.73614829  0.07129622     0.16900
H1279       H  0.45257275  0.72297745  0.99758510     0.16900
F1280       F  0.00353824  0.79633954  0.01006643    -0.20900
C1281       C  0.42879843  0.77385574  0.19965767    -0.22300
C1282       C  0.39443477  0.77530513  0.19053906    -0.10400
C1283       C  0.39919741  0.80549242  0.17189274     0.28500
C1284       C  0.43795881  0.83489506  0.16389194    -0.22300
C1285       C  0.47247404  0.83474256  0.17427592    -0.10400
C1286       C  0.46751905  0.80361507  0.19198127     0.28500
F1287       F  0.49988145  0.80203704  0.20217696    -0.20900
H1288       H  0.42588284  0.75064870  0.21386952     0.16900
H1289       H  0.44087404  0.85837912  0.14995442     0.16900
F1290       F  0.36695575  0.80827306  0.16262296    -0.20900
C1291       C  0.27628580  0.01230905  0.50162271    -0.22300
C1292       C  0.31040587  0.51156700  0.51226042    -0.10400
C1293       C  0.30691408  0.98730527  0.53435532     0.28500
C1294       C  0.26841441  0.95797964  0.54261998    -0.22300
C1295       C  0.23352119  0.95584735  0.53080053    -0.10400
C1296       C  0.23777258  0.98305717  0.50997344     0.28500
F1297       F  0.20505642  0.98227734  0.49809522    -0.20900
H1298       H  0.27790579  0.52995491  0.48421416     0.16900
H1299       H  0.26610335  0.93726845  0.55870721     0.16900
F1300       F  0.33890064  0.48489269  0.54486008    -0.20900
C1301       C  0.21479212  0.57227835  0.70867609    -0.22300
C1302       C  0.20908649  0.60520451  0.70294718    -0.10400
C1303       C  0.17265240  0.59842075  0.69097250     0.28500
C1304       C  0.14270792  0.55920301  0.68433929    -0.22300
C1305       C  0.14894894  0.52642144  0.68931577    -0.10400
C1306       C  0.18500676  0.53309053  0.70192315     0.28500
F1307       F  0.19273428  0.50234481  0.70606217    -0.20900
H1308       H  0.24263632  0.57696262  0.71817654     0.16900
H1309       H  0.11511756  0.55454275  0.67442932     0.16900
F1310       F  0.16564817  0.62942131  0.68618291    -0.20900
C1311       C  0.31043948  0.89322614  0.34872388    -0.22300
C1312       C  0.31394989  0.85956320  0.35650745    -0.10400
C1313       C  0.34619188  0.86509117  0.37347764     0.28500
C1314       C  0.37566405  0.90399625  0.38104962    -0.22300
C1315       C  0.37332160  0.93785808  0.37205373    -0.10400
C1316       C  0.34005291  0.93215136  0.35622468     0.28500
F1317       F  0.33605927  0.96395513  0.34799301    -0.20900
H1318       H  0.28557787  0.88955435  0.33577298     0.16900
H1319       H  0.40084042  0.90759960  0.39360946     0.16900
F1320       F  0.35088759  0.83346367  0.38128630    -0.20900
C1321       C  0.45889082  0.61202349  0.16972806    -0.22300
C1322       C  0.43031372  0.61726422  0.18451877    -0.10400
C1323       C  0.39130101  0.58379179  0.18913847     0.28500
C1324       C  0.38248346  0.54505506  0.18111311    -0.22300
C1325       C  0.41233201  0.53955501  0.16825941    -0.10400
C1326       C  0.45033372  0.57356024  0.16197432     0.28500
F1327       F  0.48037195  0.56957137  0.14993304    -0.20900
H1328       H  0.48929772  0.63717238  0.16623309     0.16900
H1329       H  0.35265475  0.51939625  0.18523428     0.16900
F1330       F  0.36247755  0.58834410  0.20247109    -0.20900
C1331       C  0.07865145  0.62111411  0.37156799    -0.22300
C1332       C  0.11846960  0.62862111  0.36829557    -0.10400
C1333       C  0.14856360  0.66571619  0.35755053     0.28500
C1334       C  0.13864536  0.69475374  0.34978314    -0.22300
C1335       C  0.09872596  0.68711147  0.35289472    -0.10400
C1336       C  0.06871278  0.65014230  0.36388521     0.28500
F1337       F  0.02945455  0.64116989  0.36578765    -0.20900
H1338       H  0.05520867  0.59266930  0.38009358     0.16900
H1339       H  0.16199664  0.72305687  0.34101342     0.16900
F1340       F  0.18769126  0.67447645  0.35564442    -0.20900
C1341       C  0.24664814  0.95694439  0.04012889    -0.22300
C1342       C  0.28508136  0.96190754  0.03455589    -0.10400
C1343       C  0.31519362  0.99797185  0.02254333     0.28500
C1344       C  0.30653352  0.52819430  0.01570664    -0.22300
C1345       C  0.26783248  0.52290562  0.02082946    -0.10400
C1346       C  0.23802560  0.98726261  0.03349464     0.28500
F1347       F  0.19989179  0.98052118  0.03796675    -0.20900
H1348       H  0.22316924  0.92945120  0.04967537     0.16900
H1349       H  0.32984064  0.55551249  0.00586983     0.16900
F1350       F  0.35314687  0.00440917  0.01801450    -0.20900
C1351       C  0.23360579  0.70073172  0.53041419    -0.22300
C1352       C  0.26266712  0.69606226  0.51580893    -0.10400
C1353       C  0.30025939  0.73028901  0.50920027     0.28500
C1354       C  0.30798548  0.76878287  0.51638849    -0.22300
C1355       C  0.27868122  0.77353330  0.53061686    -0.10400
C1356       C  0.24142278  0.73910758  0.53782055     0.28500
F1357       F  0.21249696  0.74239952  0.55207477    -0.20900
H1358       H  0.20425208  0.67483593  0.53535420     0.16900
H1359       H  0.33738788  0.79470181  0.51160329     0.16900
F1360       F  0.32958428  0.72655363  0.49587346    -0.20900
C1361       C  0.40023975  0.81547950  0.69818021    -0.22300
C1362       C  0.42977886  0.85057259  0.68502470    -0.10400
C1363       C  0.46839120  0.85563965  0.67960302     0.28500
C1364       C  0.47688194  0.82537600  0.68657774    -0.22300
C1365       C  0.44724086  0.79003902  0.69940997    -0.10400
C1366       C  0.40880366  0.78523679  0.70530486     0.28500
F1367       F  0.37944704  0.75117899  0.71770913    -0.20900
H1368       H  0.37003593  0.81067980  0.70188489     0.16900
H1369       H  0.50705767  0.83019407  0.68273239     0.16900
F1370       F  0.49783426  0.88980939  0.66738396    -0.20900
C1371       C  0.07173552  0.86917350  0.86260813    -0.22300
C1372       C  0.10196865  0.86321318  0.85099077    -0.10400
C1373       C  0.14092609  0.89666392  0.84605129     0.28500
C1374       C  0.14926693  0.93558625  0.85281740    -0.22300
C1375       C  0.11886762  0.94130147  0.86448788    -0.10400
C1376       C  0.07992193  0.90792195  0.86907537     0.28500
F1377       F  0.04969400  0.91283676  0.87980411    -0.20900
H1378       H  0.04117896  0.84403778  0.86563288     0.16900
H1379       H  0.17969449  0.96096247  0.84979602     0.16900
F1380       F  0.17077161  0.89169190  0.83469072    -0.20900
C1381       C  0.18567329  0.60125788  0.19893722    -0.22300
C1382       C  0.15159634  0.57258931  0.18435571    -0.10400
C1383       C  0.14710835  0.53443400  0.17809985     0.28500
C1384       C  0.17712189  0.52572276  0.18583158    -0.22300
C1385       C  0.21158546  0.55485303  0.19990719    -0.10400
C1386       C  0.21565524  0.59271618  0.20647564     0.28500
F1387       F  0.24896499  0.62184112  0.21983769    -0.20900
H1388       H  0.19021408  0.63113307  0.20336682     0.16900
H1389       H  0.17300729  0.49602224  0.18135886     0.16900
F1390       F  0.11397791  0.50579523  0.16433696    -0.20900
C1391       C  0.07425745  0.85555625  0.35787224    -0.22300
C1392       C  0.06942878  0.88324870  0.37398525    -0.10400
C1393       C  0.10388952  0.91976381  0.38243746     0.28500
C1394       C  0.14225401  0.92908491  0.37365849    -0.22300
C1395       C  0.14683825  0.90237583  0.35634221    -0.10400
C1396       C  0.11276743  0.86479694  0.34930202     0.28500
F1397       F  0.11656453  0.83749723  0.33349872    -0.20900
H1398       H  0.04832388  0.82672974  0.35200118     0.16900
H1399       H  0.16800267  0.95827482  0.37913950     0.16900
F1400       F  0.10060160  0.94727431  0.39838464    -0.20900
C1401       C  0.27340846  0.73875087  0.05745409    -0.22300
C1402       C  0.23842796  0.71037452  0.04298569    -0.10400
C1403       C  0.24245455  0.68874556  0.02108509     0.28500
C1404       C  0.28079041  0.69703914  0.01297894    -0.22300
C1405       C  0.31594288  0.72848624  0.02552504    -0.10400
C1406       C  0.31191097  0.74782071  0.04885929     0.28500
F1407       F  0.34485404  0.77703598  0.06243730    -0.20900
H1408       H  0.27127487  0.75515814  0.07496487     0.16900
H1409       H  0.28277263  0.68071340  0.99535622     0.16900
F1410       F  0.20978168  0.66100721  0.00655300    -0.20900
C1411       C  0.49814086  0.71534721  0.50206021    -0.22300
C1412       C  0.50460189  0.75428431  0.50772342    -0.10400
C1413       C  0.04154438  0.78373482  0.52008230     0.28500
C1414       C  0.06993780  0.77307318  0.52821114    -0.22300
C1415       C  0.06265259  0.73359251  0.52357140    -0.10400
C1416       C  0.02750799  0.70529983  0.50955447     0.28500
F1417       F  0.01884859  0.66649497  0.50557355    -0.20900
H1418       H  0.47067038  0.69284315  0.49180692     0.16900
H1419       H  0.09698086  0.79521005  0.53904978     0.16900
F1420       F  0.04927682  0.82204195  0.52455486    -0.20900
C1421       C  0.33748170  0.88550387  0.83152936    -0.22300
C1422       C  0.34088855  0.92241821  0.83997563    -0.10400
C1423       C  0.37451297  0.94987641  0.85552223     0.28500
C1424       C  0.40319834  0.93964143  0.86364570    -0.22300
C1425       C  0.39852247  0.90177682  0.85655085    -0.10400
C1426       C  0.36615627  0.87521683  0.83959331     0.28500
F1427       F  0.36059060  0.83836393  0.83225936    -0.20900
H1428       H  0.31203436  0.86403129  0.81911287     0.16900
H1429       H  0.42831415  0.96075456  0.87645838     0.16900
F1430       F  0.37976332  0.98650204  0.86280643    -0.20900
C1431       C  0.47875866  0.59165870  0.71089482    -0.22300
C1432       C  0.48346284  0.56384441  0.69481914    -0.10400
C1433       C  0.44958571  0.52552196  0.68911965     0.28500
C1434       C  0.41095405  0.51693473  0.69709296    -0.22300
C1435       C  0.40590779  0.54627160  0.71100207    -0.10400
C1436       C  0.44031353  0.58332994  0.71865018     0.28500
F1437       F  0.43685273  0.61275585  0.73206383    -0.20900
H1438       H  0.50432809  0.62145436  0.71536581     0.16900
H1439       H  0.38501140  0.48770189  0.69200982     0.16900
F1440       F  0.45359817  0.49730274  0.67458521    -0.20900
C1441       C  0.79380780  0.49947018  0.71619668     0.79200
N1442       N  0.79121234  0.01820142  0.73969927    -0.79100
C1443       C  0.82627575  0.04718642  0.75213844     0.81700
N1444       N  0.86238328  0.05578286  0.74186631    -0.79000
C1445       C  0.86543550  0.03731261  0.71938887     0.81800
N1446       N  0.83124412  0.00905079  0.70656496    -0.80800
C1447       C  0.58730710  0.13162825  0.66961246     0.79200
N1448       N  0.58366802  0.11737472  0.64324448    -0.79100
C1449       C  0.54814940  0.08390814  0.63488598     0.81700
N1450       N  0.51713056  0.06530818  0.65268831    -0.79000
C1451       C  0.52055871  0.07879226  0.67873346     0.81800
N1452       N  0.55536336  0.11211045  0.68696639    -0.80800
C1453       C  0.77950237  0.47267436  0.83145929     0.79200
N1454       N  0.75964072  0.45487455  0.80730350    -0.79100
C1455       C  0.76550528  0.42551492  0.79534467     0.81700
N1456       N  0.79124110  0.41546324  0.80689211    -0.79000
C1457       C  0.81116475  0.43292468  0.83016691     0.81800
N1458       N  0.80529497  0.46144718  0.84250498    -0.80800
C1459       C  0.94379014  0.33976895  0.87769371     0.79200
N1460       N  0.95628476  0.35445306  0.90383849    -0.79100
C1461       C  0.95183599  0.38602016  0.91324123     0.81700
N1462       N  0.93503430  0.40194878  0.89686010    -0.79000
C1463       C  0.92283735  0.38787821  0.87120624     0.81800
N1464       N  0.92693177  0.35671806  0.86176646    -0.80800
C1465       C  0.94474197  0.30550577  0.49781167     0.79200
N1466       N  0.96961510  0.29364199  0.50945699    -0.79100
C1467       C  0.97539296  0.26496410  0.49741090     0.81700
N1468       N  0.95654557  0.24805496  0.47374562    -0.79000
C1469       C  0.93173202  0.25880419  0.46158683     0.81800
N1470       N  0.92575840  0.28823215  0.47331944    -0.80800
C1471       C  0.60794752  0.17226935  0.54535694     0.79200
N1472       N  0.59055217  0.18867114  0.52941070    -0.79100
C1473       C  0.58626736  0.21979494  0.53870913     0.81700
N1474       N  0.59881533  0.23447620  0.56418890    -0.79000
C1475       C  0.61609583  0.21902577  0.58055964     0.81800
N1476       N  0.62068559  0.18745635  0.57134051    -0.80800
C1477       C  0.92207883  0.29828619  0.00311480     0.79200
N1478       N  0.88934707  0.27820130  0.01991349    -0.79100
C1479       C  0.85513626  0.24468109  0.01100340     0.81700
N1480       N  0.85337206  0.23185414  0.98496626    -0.79000
C1481       C  0.88478568  0.25111182  0.96769466     0.81800
N1482       N  0.91972771  0.28458316  0.97667509    -0.80800
C1483       C  0.62764666  0.16616810  0.04926548     0.79200
N1484       N  0.66467981  0.17495732  0.03958257    -0.79100
C1485       C  0.69926958  0.20179716  0.05265460     0.81700
N1486       N  0.69687983  0.22059958  0.07526818    -0.79000
C1487       C  0.66093421  0.21304994  0.08547019     0.81800
N1488       N  0.62554466  0.18489880  0.07286584    -0.80800
C1489       C  0.95777008  0.33233138  0.38299289     0.79200
N1490       N  0.99477208  0.34372794  0.37189164    -0.79100
C1491       C  0.52919070  0.37214135  0.38429170     0.81700
N1492       N  0.52682149  0.38929204  0.40765989    -0.79000
C1493       C  0.99118488  0.37937704  0.41917438     0.81800
N1494       N  0.95578154  0.35002712  0.40720065    -0.80800
C1495       C  0.75372500  0.46593300  0.33517656     0.79200
N1496       N  0.75174973  0.45121206  0.30910017    -0.79100
C1497       C  0.71593458  0.41912569  0.29970496     0.81700
N1498       N  0.68318901  0.40255978  0.31606525    -0.79000
C1499       C  0.68487292  0.41640932  0.34172625     0.81800
N1500       N  0.71989967  0.44833333  0.35111113    -0.80800
C1501       C  0.60585494  0.13487497  0.16677155     0.79200
N1502       N  0.62365060  0.11775726  0.18150778    -0.79100
C1503       C  0.62559264  0.08558589  0.17160926     0.81700
N1504       N  0.61039923  0.07078943  0.14661913    -0.79000
C1505       C  0.59262639  0.08691835  0.13132893     0.81800
N1506       N  0.59030306  0.11949931  0.14118758    -0.80800
C1507       C  0.77045064  0.00296845  0.21282395     0.79200
N1508       N  0.78757346  0.01988011  0.23777388    -0.79100
C1509       C  0.78115194  0.04938503  0.24879808     0.81700
N1510       N  0.75772040  0.06072294  0.23545481    -0.79000
C1511       C  0.74072747  0.04437634  0.21119586     0.81800
N1512       N  0.74671439  0.01529319  0.19993614    -0.80800
C1513       C  0.54111051  0.25426223  0.83476479     0.79200
N1514       N  0.55672984  0.25392364  0.80934443    -0.79100
C1515       C  0.58934593  0.28884009  0.79942751     0.81700
N1516       N  0.60525036  0.32296581  0.81447895    -0.79000
C1517       C  0.59012593  0.32364769  0.83924126     0.81800
N1518       N  0.55795762  0.28949367  0.84923066    -0.80800
C1519       C  0.67103766  0.05140410  0.87904790     0.79200
N1520       N  0.65850786  0.01572778  0.86564046    -0.79100
C1521       C  0.62921707  0.48023890  0.87643069     0.81700
N1522       N  0.61280460  0.48006837  0.90085147    -0.79000
C1523       C  0.62436701  0.01461314  0.91475745     0.81800
N1524       N  0.65410445  0.05087215  0.90411994    -0.80800
C1525       C  0.87349903  0.40344828  0.66836980     0.79200
N1526       N  0.88920427  0.41822976  0.64283425    -0.79100
C1527       C  0.91975975  0.41274223  0.63265044     0.81700
N1528       N  0.93355899  0.39253712  0.64754218    -0.79000
C1529       C  0.91837567  0.37789327  0.67251284     0.81800
N1530       N  0.88814163  0.38293258  0.68280202    -0.80800
C1531       C  0.50467054  0.23732808  0.71340313     0.79200
N1532       N  0.98887333  0.22057816  0.73856604    -0.79100
C1533       C  0.95756207  0.22446974  0.74919570     0.81700
N1534       N  0.94336247  0.24508835  0.73515783    -0.79000
C1535       C  0.95875982  0.26166931  0.71065428     0.81800
N1536       N  0.98958835  0.25808834  0.69987962    -0.80800
C1537       C  0.70468649  0.08638525  0.50064364     0.79200
N1538       N  0.71978417  0.12215617  0.51422734    -0.79100
C1539       C  0.75088791  0.15656429  0.50378343     0.81700
N1540       N  0.76683641  0.15555334  0.47941151    -0.79000
C1541       C  0.75290575  0.12083229  0.46523012     0.81800
N1542       N  0.72113473  0.08558204  0.47559460    -0.80800
C1543       C  0.83433568  0.38369651  0.54502772     0.79200
N1544       N  0.81781861  0.38372153  0.57013374    -0.79100
C1545       C  0.78667092  0.34809549  0.58043733     0.81700
N1546       N  0.77316903  0.31364678  0.56618062    -0.79000
C1547       C  0.78918702  0.31304073  0.54180774     0.81800
N1548       N  0.81993735  0.34791395  0.53131543    -0.80800
C1549       C  0.70952349  0.07315112  0.00269233     0.79200
N1550       N  0.72560400  0.05463797  0.01778758    -0.79100
C1551       C  0.75680304  0.05070910  0.00807630     0.81700
N1552       N  0.77216976  0.06520214  0.98303695    -0.79000
C1553       C  0.75711407  0.08368796  0.96740404     0.81800
N1554       N  0.72521040  0.08756031  0.97702471    -0.80800
C1555       C  0.83867514  0.40492528  0.04699650     0.79200
N1556       N  0.82131386  0.38653296  0.07156343    -0.79100
C1557       C  0.79001898  0.39060135  0.08217296     0.81700
N1558       N  0.77756081  0.41328857  0.06877415    -0.79000
C1559       C  0.79485239  0.43191356  0.04506351     0.81800
N1560       N  0.82525610  0.42771315  0.03425337    -0.80800
C1561       C  0.67267882  0.07272281  0.38203669     0.79200
N1562       N  0.65911485  0.09514650  0.36894536    -0.79100
C1563       C  0.62922069  0.10008482  0.37985048     0.81700
N1564       N  0.61268616  0.08279867  0.40401252    -0.79000
C1565       C  0.62527030  0.06044911  0.41770264     0.81800
N1566       N  0.65594829  0.05545651  0.40698127    -0.80800
C1567       C  0.54110547  0.23811034  0.33464586     0.79200
N1568       N  0.55647231  0.21872173  0.34955600    -0.79100
C1569       C  0.58724143  0.21419826  0.33972615     0.81700
N1570       N  0.60274244  0.22867644  0.31480125    -0.79000
C1571       C  0.58825184  0.24779219  0.29938049     0.81800
N1572       N  0.55686369  0.25246990  0.30903174    -0.80800
C1573       C  0.49926904  0.22032477  0.21021560     0.79200
N1574       N  0.98476466  0.21692422  0.23657974    -0.79100
C1575       C  0.95047803  0.18190317  0.24462808     0.81700
N1576       N  0.93128614  0.15121816  0.22656244    -0.79000
C1577       C  0.94502629  0.15447835  0.20060338     0.81800
N1578       N  0.97906461  0.18880548  0.19271611    -0.80800
C1579       C  0.86806604  0.42777183  0.16384732     0.79200
N1580       N  0.88699019  0.42523310  0.14044501    -0.79100
C1581       C  0.91475600  0.46019599  0.12739979     0.81700
N1582       N  0.92210092  0.49619760  0.13718471    -0.79000
C1583       C  0.90360009  0.49914787  0.15976206     0.81800
N1584       N  0.87651202  0.46498894  0.17311277    -0.80800
C1585       C  0.76793941  0.25167876  0.33596492     0.79200
N1586       N  0.75547303  0.25402428  0.30983304    -0.79100
C1587       C  0.75947175  0.28996732  0.30063322     0.81700
N1588       N  0.77579869  0.32250156  0.31723344    -0.79000
C1589       C  0.78802983  0.32051980  0.34286507     0.81800
N1590       N  0.78433079  0.28530838  0.35208858    -0.80800
C1591       C  0.93324245  0.04895753  0.38175892     0.79200
N1592       N  0.95299765  0.05093081  0.40594627    -0.79100
C1593       C  0.94765112  0.01570247  0.41753565     0.81700
N1594       N  0.92202846  0.47975683  0.40588402    -0.79000
C1595       C  0.90191387  0.47731795  0.38271052     0.81800
N1596       N  0.90793565  0.01204429  0.37042176    -0.80800
C1597       C  0.76775678  0.21644056  0.71346869     0.79200
N1598       N  0.78675263  0.21807495  0.73797014    -0.79100
C1599       C  0.78228786  0.18288566  0.74911290     0.81700
N1600       N  0.75869935  0.14741655  0.73629838    -0.79000
C1601       C  0.73959352  0.14546217  0.71266183     0.81800
N1602       N  0.74406821  0.17983292  0.70129191    -0.80800
C1603       C  0.60052456  0.41857541  0.66986675     0.79200
N1604       N  0.58639754  0.42018183  0.64412733    -0.79100
C1605       C  0.59020863  0.45601116  0.63480400     0.81700
N1606       N  0.60824667  0.48918114  0.65076549    -0.79000
C1607       C  0.62248319  0.48799505  0.67584550     0.81800
N1608       N  0.61880618  0.45291057  0.68527523    -0.80800
C1609       C  0.92125466  0.06864823  0.49994913     0.79200
N1610       N  0.92231249  0.08565510  0.47480189    -0.79100
C1611       C  0.88676636  0.08038393  0.46361927     0.81700
N1612       N  0.85161717  0.05795138  0.47696337    -0.79000
C1613       C  0.85027114  0.04102979  0.50136444     0.81800
N1614       N  0.88503432  0.04651515  0.51281524    -0.80800
C1615       C  0.62239901  0.40100466  0.54595458     0.79200
N1616       N  0.65695444  0.41847715  0.53070171    -0.79100
C1617       C  0.69191991  0.42200517  0.54061379     0.81700
N1618       N  0.69251105  0.40848527  0.56597087    -0.79000
C1619       C  0.65911781  0.39117309  0.58163016     0.81800
N1620       N  0.62348085  0.38728784  0.57183852    -0.80800
C1621       C  0.78691667  0.23007233  0.21108678     0.79200
N1622       N  0.82096518  0.24703071  0.19539226    -0.79100
C1623       C  0.85610815  0.25061902  0.20482535     0.81700
N1624       N  0.85746624  0.23746518  0.23025892    -0.79000
C1625       C  0.82446072  0.22045023  0.24641893     0.81800
N1626       N  0.78865888  0.21676500  0.23702326    -0.80800
C1627       C  0.58444275  0.39631860  0.16518118     0.79200
N1628       N  0.54757311  0.37132170  0.17662826    -0.79100
C1629       C  0.51295750  0.36595459  0.16484833     0.81700
N1630       N  0.51512544  0.38585881  0.14164849    -0.79000
C1631       C  0.55085088  0.41093152  0.12968447     0.81800
N1632       N  0.58622428  0.41605205  0.14109845    -0.80800
C1633       C  0.93480866  0.08550048  0.00116514     0.79200
N1634       N  0.92387855  0.08823113  0.97469538    -0.79100
C1635       C  0.92722762  0.12390475  0.96570624     0.81700
N1636       N  0.94088719  0.15556136  0.98284896    -0.79000
C1637       C  0.95119594  0.15318917  0.00891892     0.81800
N1638       N  0.94857663  0.11833242  0.01794742    -0.80800
C1639       C  0.59573014  0.37997406  0.04995589     0.79200
N1640       N  0.61683054  0.38201239  0.07345233    -0.79100
C1641       C  0.61024529  0.34665986  0.08555834     0.81700
N1642       N  0.58240223  0.31085407  0.07497022    -0.79000
C1643       C  0.56103199  0.30847535  0.05246337     0.81800
N1644       N  0.56793503  0.34300042  0.03987143    -0.80800
C1645       C  0.75405292  0.23288293  0.83138179     0.79200
N1646       N  0.71729563  0.20797862  0.84289278    -0.79100
C1647       C  0.68259413  0.20178562  0.83085403     0.81700
N1648       N  0.68455201  0.22090422  0.80737736    -0.79000
C1649       C  0.72013679  0.24592502  0.79535992     0.81800
N1650       N  0.75568987  0.25187723  0.80698643    -0.80800
C1651       C  0.95665378  0.06839944  0.87853784     0.79200
N1652       N  0.99109496  0.08590931  0.86316181    -0.79100
C1653       C  0.52620301  0.08957391  0.87298057     0.81700
N1654       N  0.52698126  0.07601476  0.89831423    -0.79000
C1655       C  0.99362836  0.05839874  0.91403249     0.81800
N1656       N  0.95790927  0.05457877  0.90438926    -0.80800
O1657       O  0.86379429  0.08935894  0.78897260    -0.81100
O1658       O  0.73104581  0.11574408  0.88633026    -0.82700
O1659       O  0.77219422  0.03123975  0.82690934    -0.79700
O1660       O  0.78377486  0.14454459  0.78695155    -0.78100
O1661       O  0.83217989  0.21189510  0.78424646    -0.79900
O1662       O  0.80110190  0.02315581  0.86598656    -0.80800
O1663       O  0.72303197  0.08158105  0.84589332    -0.82100
O1664       O  0.79644734  0.07027108  0.78494896    -0.82400
Eu1665     Eu  0.79077621  0.10363602  0.82529588     2.39200
O1666       O  0.80648491  0.16747911  0.84116335    -0.89900
O1667       O  0.84200867  0.09061326  0.84134768    -0.93500
C1668       C  0.82829584  0.06970719  0.77707553     1.01100
C1669       C  0.70971358  0.08656921  0.86929357     1.01000
C1670       C  0.78226118  0.01038877  0.84266188     1.00900
C1671       C  0.80036642  0.18019492  0.77531353     0.98800
H1672       H  0.76832008  0.07903340  0.88118952     0.28500
O1673       O  0.79225678  0.10203564  0.87381403    -1.02300
H1674       H  0.85588744  0.15316219  0.79004367     0.28500
O1675       O  0.85587553  0.15336868  0.80987964    -1.04900
O1676       O  0.84357103  0.21302884  0.92948202    -0.82100
O1677       O  0.97909289  0.19146485  0.82780351    -0.81600
O1678       O  0.79637176  0.08235094  0.92944056    -0.80100
O1679       O  0.81940001  0.23919356  0.82652598    -0.83400
O1680       O  0.91898068  0.22486206  0.78707857    -0.81300
O1681       O  0.89375517  0.06700375  0.88631825    -0.79900
O1682       O  0.92893182  0.16540338  0.92850043    -0.81400
O1683       O  0.94462421  0.27835206  0.88598293    -0.83400
O1684       O  0.88309939  0.09697696  0.92870213    -0.80100
O1685       O  0.91739572  0.28574184  0.84582653    -0.82800
O1686       O  0.77350924  0.12787463  0.92996004    -0.78500
O1687       O  0.92854536  0.09382903  0.84625936    -0.78500
O1688       O  0.93826752  0.17671490  0.78494897    -0.78200
O1689       O  0.78159262  0.20891245  0.86502925    -0.81700
O1690       O  0.91214227  0.23596807  0.92972328    -0.81100
O1691       O  0.98722469  0.22812415  0.86697893    -0.79400
Eu1692     Eu  0.80477768  0.16663938  0.88937583     2.39800
Eu1693     Eu  0.90607228  0.13904194  0.82581281     2.39600
Eu1694     Eu  0.84270347  0.08948580  0.88940675     2.38400
Eu1695     Eu  0.87110863  0.21821873  0.82519407     2.39900
Eu1696     Eu  0.92042964  0.20486415  0.88943436     2.39800
O1697       O  0.92016543  0.20372739  0.84124184    -0.93900
O1698       O  0.85607463  0.15374082  0.90423124    -0.92700
C1699       C  0.88004093  0.23321644  0.94019935     1.01300
C1700       C  0.00056561  0.22151732  0.84412543     1.00000
C1701       C  0.77616199  0.09841674  0.94030831     0.99400
C1702       C  0.78838250  0.22890072  0.84216518     1.01400
C1703       C  0.93800146  0.20803802  0.77572411     1.00400
C1704       C  0.92295040  0.07476533  0.86936510     0.99200
C1705       C  0.91305380  0.12888315  0.93884178     0.99300
C1706       C  0.93700542  0.29956156  0.86881130     1.01900
H1707       H  0.93029330  0.14084309  0.88126407     0.29200
O1708       O  0.90724396  0.14181868  0.87405667    -1.06000
H1709       H  0.86954961  0.24113447  0.88103347     0.31300
O1710       O  0.86806296  0.21695704  0.87375154    -1.08600
O1711       O  0.95001986  0.42551870  0.95079835    -0.81100
O1712       O  0.60470241  0.44651009  0.05405742    -0.82700
O1713       O  0.58317256  0.47438671  0.95209066    -0.79700
O1714       O  0.98342473  0.36104196  0.99458521    -0.78100
O1715       O  0.94871914  0.35331217  0.03467145    -0.79900
O1716       O  0.60475324  0.04256877  0.95024547    -0.80800
O1717       O  0.57506461  0.40908936  0.01524528    -0.82100
O1718       O  0.99595432  0.40306272  0.95062178    -0.82400
Eu1719     Eu  0.53474413  0.43458181  0.99107120     2.39200
O1720       O  0.53528605  0.43669567  0.03915794    -0.89900
O1721       O  0.52225797  0.48579417  0.97588347    -0.93500
C1722       C  0.96620052  0.40523947  0.94024764     1.01100
C1723       C  0.59393594  0.41519976  0.03854910     1.01000
C1724       C  0.60334832  0.51044848  0.94090470     1.00900
C1725       C  0.95456921  0.33949635  0.01175272     0.98800
H1726       H  0.60990762  0.49882237  0.99944610     0.28500
O1727       O  0.58569742  0.49765975  0.00649271    -1.02300
H1728       H  0.94715445  0.39847504  0.99900160     0.28500
O1729       O  0.97013871  0.42260064  0.00626717    -1.04900
O1730       O  0.59382639  0.04852552  0.09342391    -0.82100
O1731       O  0.93468878  0.02339694  0.99307121    -0.81600
O1732       O  0.64752534  0.07342467  0.99424081    -0.80100
O1733       O  0.01257460  0.41391635  0.09248579    -0.83400
O1734       O  0.89842999  0.39980604  0.05290041    -0.81300
O1735       O  0.53440757  0.05889712  0.95152637    -0.79900
O1736       O  0.56055872  0.10924552  0.05277819    -0.81400
O1737       O  0.95733027  0.99723877  0.09057234    -0.83400
O1738       O  0.59895440  0.11593093  0.01480761    -0.80100
O1739       O  0.93867962  0.43021936  0.09497750    -0.82800
O1740       O  0.65501457  0.04652624  0.03447611    -0.78500
O1741       O  0.96581018  0.01270080  0.95035105    -0.78500
O1742       O  0.89209057  0.43115457  0.01458394    -0.78200
O1743       O  0.58015827  0.46187736  0.09562789    -0.81700
O1744       O  0.54603815  0.06849195  0.09477715    -0.81100
O1745       O  0.96229035  0.05884496  0.03288933    -0.79400
Eu1746     Eu  0.58685006  0.50086910  0.05498460     2.39800
Eu1747     Eu  0.95784977  0.47289765  0.99023368     2.39600
Eu1748     Eu  0.57378376  0.05011916  0.99065609     2.38400
Eu1749     Eu  0.97139111  0.42159043  0.05481896     2.39900
Eu1750     Eu  0.50766899  0.03678918  0.05378272     2.39800
O1751       O  0.95853453  0.47261663  0.03833141    -0.93900
O1752       O  0.57205286  0.04944659  0.03870783    -0.92700
C1753       C  0.57701885  0.06777557  0.10446970     1.01300
C1754       C  0.94248697  0.05263527  0.00998810     1.00000
C1755       C  0.66892237  0.06601713  0.01148836     0.99400
C1756       C  0.54827199  0.43000591  0.10412367     1.01400
C1757       C  0.87808080  0.41040291  0.03709898     1.00400
C1758       C  0.49803645  0.04306601  0.94069469     0.99200
C1759       C  0.59236127  0.12927680  0.03765561     0.99300
C1760       C  0.93775484  0.46200523  0.10260145     1.01900
H1761       H  0.50949213  0.06089710  0.99820115     0.29200
O1762       O  0.51059496  0.03797735  0.00547597    -1.06000
H1763       H  0.52140924  0.48673078  0.08975725     0.31300
O1764       O  0.52177824  0.48662044  0.06995259    -1.08600
O1765       O  0.92869988  0.21743986  0.42455092    -0.81100
O1766       O  0.76736184  0.18933710  0.32759749    -0.82700
O1767       O  0.89192124  0.27377391  0.38733778    -0.79700
O1768       O  0.79192993  0.16003419  0.42726099    -0.78100
O1769       O  0.77314180  0.09273907  0.42950710    -0.79900
O1770       O  0.92949304  0.28172245  0.34861623    -0.80800
O1771       O  0.79344681  0.22328594  0.36811160    -0.82100
O1772       O  0.87974028  0.23557522  0.42822560    -0.82400
Eu1773     Eu  0.83928004  0.20124077  0.38858088     2.39200
O1774       O  0.79085583  0.13748426  0.37284929    -0.89900
O1775       O  0.90350697  0.21476077  0.37215886    -0.93500
C1776       C  0.91240933  0.23675009  0.43622519     1.01100
C1777       C  0.77464955  0.21807521  0.34483804     1.01000
C1778       C  0.92304773  0.29455311  0.37177506     1.00900
C1779       C  0.77306038  0.12420982  0.43872212     0.98800
H1780       H  0.84122677  0.22611546  0.33282502     0.28500
O1781       O  0.84242973  0.20323594  0.34007306    -1.02300
H1782       H  0.85597210  0.15239523  0.42365103     0.28500
O1783       O  0.85548603  0.15214816  0.40382339    -1.04900
O1784       O  0.78277958  0.09060866  0.28594090    -0.82100
O1785       O  0.93993829  0.11450329  0.38657532    -0.81600
O1786       O  0.86550296  0.22306949  0.28449785    -0.80100
O1787       O  0.73273107  0.06794845  0.38769886    -0.83400
O1788       O  0.84752449  0.08050523  0.42598673    -0.81300
O1789       O  0.97957310  0.23971539  0.32685113    -0.79900
O1790       O  0.91299704  0.14009136  0.28303393    -0.81400
O1791       O  0.81655867  0.02762172  0.32716935    -0.83400
O1792       O  0.93522528  0.20836175  0.28302971    -0.80100
O1793       O  0.78249944  0.01948989  0.36762724    -0.82800
O1794       O  0.79728929  0.17611482  0.28367576    -0.78500
O1795       O  0.98779207  0.21317179  0.36697449    -0.78500
O1796       O  0.91492887  0.12932767  0.42841403    -0.78200
O1797       O  0.72417171  0.09586902  0.34835451    -0.81700
O1798       O  0.82910217  0.06872389  0.28406871    -0.81100
O1799       O  0.91002541  0.07701944  0.34783914    -0.79400
Eu1800     Eu  0.79017011  0.13860184  0.32470048     2.39800
Eu1801     Eu  0.92028526  0.16738454  0.38763678     2.39600
Eu1802     Eu  0.90553415  0.21618386  0.32411894     2.38400
Eu1803     Eu  0.80539207  0.08720076  0.38845488     2.39900
Eu1804     Eu  0.86810152  0.10111069  0.32395862     2.39800
O1805       O  0.86918152  0.10285830  0.37209831    -0.93900
O1806       O  0.85432067  0.15186872  0.30979222    -0.92700
C1807       C  0.79848177  0.07026945  0.27479670     1.01300
C1808       C  0.92957856  0.08345294  0.37090941     1.00000
C1809       C  0.82914084  0.20620184  0.27353360     0.97000
C1810       C  0.71141985  0.07707861  0.37165678     1.01400
C1811       C  0.88348438  0.09748033  0.43736978     1.00400
C1812       C  0.00121199  0.23222968  0.34385580     0.99200
C1813       C  0.93252759  0.17648518  0.27225497     0.99300
C1814       C  0.78768294  0.00608982  0.34431873     1.01900
H1815       H  0.94278298  0.16558022  0.33151816     0.29200
O1816       O  0.91882661  0.16435785  0.33910441    -1.06000
H1817       H  0.78043621  0.06486418  0.33294146     0.31300
O1818       O  0.80365805  0.08885031  0.34004072    -1.08600
O1819       O  0.72739963  0.44158564  0.72022717    -0.81100
O1820       O  0.74667976  0.30819667  0.61793976    -0.82700
O1821       O  0.81277892  0.40622209  0.66063604    -0.79700
O1822       O  0.69955829  0.39189424  0.61904537    -0.78100
O1823       O  0.63106501  0.34606351  0.61814137    -0.79900
O1824       O  0.82083478  0.37997527  0.70091808    -0.80800
O1825       O  0.76992320  0.37663839  0.61709570    -0.82100
O1826       O  0.76504184  0.44935786  0.68161475    -0.82400
Eu1827     Eu  0.73911659  0.38340758  0.65779704     2.39200
O1828       O  0.68762155  0.31935909  0.64272041    -0.89900
O1829       O  0.73751767  0.38239265  0.70577311    -0.93500
C1830       C  0.75876713  0.46218691  0.70476613     1.01100
C1831       C  0.76715180  0.34437994  0.60704411     1.01000
C1832       C  0.83419769  0.39859842  0.67770459     1.00900
C1833       C  0.66320459  0.37603773  0.60831269     0.98800
H1834       H  0.77543240  0.33205372  0.66526744     0.28500
O1835       O  0.75136999  0.33092009  0.67258839    -1.02300
H1836       H  0.67467576  0.39369944  0.66649905     0.28500
O1837       O  0.67604594  0.37084700  0.67355679    -1.04900
O1838       O  0.64874456  0.19431500  0.66058013    -0.82100
O1839       O  0.62693447  0.32829979  0.76113862    -0.81600
O1840       O  0.77307293  0.28137179  0.71889747    -0.80100
O1841       O  0.61529201  0.25931350  0.61801654    -0.83400
O1842       O  0.59973081  0.35617956  0.66144442    -0.81300
O1843       O  0.76152558  0.38366979  0.75829162    -0.79900
O1844       O  0.68126787  0.24807766  0.75832185    -0.81400
O1845       O  0.56561202  0.23473090  0.71977870    -0.83400
O1846       O  0.74872899  0.29645509  0.76132161    -0.80100
O1847       O  0.55725295  0.26291968  0.68050306    -0.82800
O1848       O  0.74259142  0.24376122  0.68030816    -0.78500
O1849       O  0.71349732  0.40303771  0.76190039    -0.78500
O1850       O  0.62707642  0.39077420  0.70160587    -0.78200
O1851       O  0.66064968  0.23614949  0.61747476    -0.81700
O1852       O  0.61499584  0.18653946  0.70108561    -0.81100
O1853       O  0.60718599  0.26068504  0.76270559    -0.79400
Eu1854     Eu  0.70018172  0.26790581  0.65736417     2.39800
Eu1855     Eu  0.67332279  0.36915419  0.72200157     2.39600
Eu1856     Eu  0.75319732  0.33414881  0.72092976     2.38400
Eu1857     Eu  0.62356662  0.30638828  0.65783866     2.39900
Eu1858     Eu  0.63825281  0.25463590  0.72139949     2.39800
O1859       O  0.62439497  0.30549335  0.70604247    -0.93900
O1860       O  0.70183894  0.26962744  0.70538977    -0.92700
C1861       C  0.62020108  0.17278191  0.67794090     1.01300
C1862       C  0.60807322  0.29235633  0.77242200     1.00000
C1863       C  0.76280450  0.25045048  0.70310944     0.99400
C1864       C  0.63098386  0.23865479  0.60733952     1.01400
C1865       C  0.60740249  0.38505797  0.67863952     1.00400
C1866       C  0.74574249  0.40342226  0.77002814     0.99200
C1867       C  0.71714202  0.26446041  0.76980700     0.99300
C1868       C  0.54425139  0.24349808  0.70353027     1.01900
H1869       H  0.68914713  0.31938919  0.75676823     0.29200
O1870       O  0.68857765  0.31930814  0.73695388    -1.06000
H1871       H  0.61281174  0.23189399  0.66589479     0.31300
O1872       O  0.63597165  0.25590939  0.67309036    -1.08600
O1873       O  0.69865477  0.25536901  0.12229135    -0.81100
O1874       O  0.56296147  0.28096213  0.21939068    -0.82700
O1875       O  0.60334652  0.19575078  0.16043603    -0.79700
O1876       O  0.61486076  0.30874979  0.12206544    -0.78100
O1877       O  0.66304171  0.37605001  0.11853583    -0.79900
O1878       O  0.63371125  0.18873842  0.19908485    -0.80800
O1879       O  0.55536414  0.24572041  0.17959522    -0.82100
O1880       O  0.63113324  0.23574832  0.11865236    -0.82400
Eu1881     Eu  0.62361533  0.26812576  0.15914029     2.39200
O1882       O  0.63877130  0.33200409  0.17452385    -0.89900
O1883       O  0.67544428  0.25601083  0.17494127    -0.93500
C1884       C  0.66311894  0.23557764  0.11052204     1.01100
C1885       C  0.54128873  0.25208196  0.20223839     1.01000
C1886       C  0.61320172  0.17502833  0.17638267     1.00900
C1887       C  0.63069981  0.34424843  0.11042974     0.98800
H1888       H  0.60043742  0.24375784  0.21473399     0.28500
O1889       O  0.62470303  0.26659944  0.20753452    -1.02300
H1890       H  0.68828829  0.31802905  0.12387540     0.28500
O1891       O  0.68850258  0.31833198  0.14369395    -1.04900
O1892       O  0.67522304  0.37910562  0.26205199    -0.82100
O1893       O  0.81146493  0.36047204  0.16056453    -0.81600
O1894       O  0.62844030  0.24722444  0.26208429    -0.80100
O1895       O  0.65004108  0.40274123  0.16017342    -0.83400
O1896       O  0.75066772  0.39010360  0.12009357    -0.81300
O1897       O  0.72494215  0.23018331  0.21943846    -0.79900
O1898       O  0.76126568  0.33131358  0.26296590    -0.81400
O1899       O  0.77518968  0.44361434  0.21995976    -0.83400
O1900       O  0.71533909  0.26291367  0.26323174    -0.80100
O1901       O  0.74838302  0.45101350  0.17955653    -0.82800
O1902       O  0.60567164  0.29282842  0.26278026    -0.78500
O1903       O  0.76062044  0.25854167  0.17987228    -0.78500
O1904       O  0.77033475  0.34222322  0.11790059    -0.78200
O1905       O  0.61246985  0.37264803  0.19873932    -0.81700
O1906       O  0.74373197  0.40175958  0.26309318    -0.81100
O1907       O  0.81941610  0.39774504  0.19942701    -0.79400
Eu1908     Eu  0.63693326  0.33128337  0.22259016     2.39800
Eu1909     Eu  0.73942628  0.30489731  0.15945238     2.39600
Eu1910     Eu  0.67593295  0.25490569  0.22293306     2.38400
Eu1911     Eu  0.70316316  0.38321936  0.15873698     2.39900
Eu1912     Eu  0.75296104  0.37041069  0.22329809     2.39800
O1913       O  0.75193035  0.36874743  0.17518338    -0.93900
O1914       O  0.68857894  0.31895839  0.23765956    -0.92700
C1915       C  0.71154565  0.39962992  0.27290492     1.01300
C1916       C  0.83191476  0.39206859  0.17591614     1.00000
C1917       C  0.60797574  0.26308448  0.27279196     0.99400
C1918       C  0.61896302  0.39236985  0.17582799     1.01400
C1919       C  0.76975878  0.37341502  0.10858500     1.00400
C1920       C  0.75406047  0.23799498  0.20244552     0.99200
C1921       C  0.74511708  0.29487850  0.27357750     0.99300
C1922       C  0.76690578  0.46453368  0.20292898     1.01900
H1923       H  0.76372894  0.30581434  0.21524439     0.29200
O1924       O  0.74100416  0.30738206  0.20793194    -1.06000
H1925       H  0.70081663  0.40552509  0.21445177     0.31300
O1926       O  0.70009834  0.38165972  0.20724688    -1.08600
O1927       O  0.00668058  0.04485717  0.59691329    -0.81100
O1928       O  0.64426675  0.02216979  0.49475406    -0.82700
O1929       O  0.59165591  0.99702602  0.59707272    -0.79700
O1930       O  0.60887793  0.11081700  0.55405282    -0.78100
O1931       O  0.58268085  0.11837280  0.51349258    -0.79900
O1932       O  0.54582205  0.42873070  0.59746126    -0.80800
O1933       O  0.65093190  0.06026039  0.53296159    -0.82100
O1934       O  0.57530003  0.06809703  0.59721384    -0.82400
Eu1935     Eu  0.58504849  0.03713306  0.55730914     2.39200
O1936       O  0.58491096  0.03570626  0.50917717    -0.89900
O1937       O  0.52065153  0.48581978  0.57122307    -0.93500
C1938       C  0.54308490  0.06526603  0.60760645     1.01100
C1939       C  0.66486021  0.05310240  0.51050277     1.01000
C1940       C  0.57550571  0.46071388  0.60783674     1.00900
C1941       C  0.60162686  0.13211206  0.53667263     0.98800
H1942       H  0.59593915  0.47351137  0.54906204     0.28500
O1943       O  0.57293042  0.47442591  0.54163791    -1.02300
H1944       H  0.53418966  0.07336155  0.54873719     0.28500
O1945       O  0.53275555  0.04914946  0.54147318    -1.04900
O1946       O  0.52963963  0.42134918  0.45609967    -0.82100
O1947       O  0.89528541  0.44750167  0.55258895    -0.81600
O1948       O  0.55966928  0.39986189  0.55372640    -0.80100
O1949       O  0.58523613  0.05958472  0.45517168    -0.83400
O1950       O  0.98554674  0.07275373  0.49457160    -0.81300
O1951       O  0.96005020  0.41286031  0.59533905    -0.79900
O1952       O  0.93685453  0.36361968  0.49357123    -0.81400
O1953       O  0.94955093  0.47738346  0.45506463    -0.83400
O1954       O  0.96758598  0.35633953  0.53194205    -0.80100
O1955       O  0.99815685  0.04475170  0.45207762    -0.82800
O1956       O  0.59433778  0.42644662  0.51360825    -0.78500
O1957       O  0.93756565  0.45869943  0.59642176    -0.78500
O1958       O  0.94752704  0.04269223  0.53302012    -0.78200
O1959       O  0.60418110  0.01122114  0.45279951    -0.81700
O1960       O  0.96233636  0.40249372  0.45254575    -0.81100
O1961       O  0.88809225  0.41230601  0.51280674    -0.79400
Eu1962     Eu  0.57133059  0.97138937  0.49312669     2.39800
Eu1963     Eu  0.96922118  0.49852765  0.55650939     2.39600
Eu1964     Eu  0.50823607  0.42186494  0.55653386     2.38400
Eu1965     Eu  0.53648019  0.05084233  0.49303979     2.39900
Eu1966     Eu  0.95644131  0.43600445  0.49268967     2.39800
O1967       O  0.97132742  0.49978482  0.50832645    -0.93900
O1968       O  0.50760999  0.42291154  0.50856241    -0.92700
C1969       C  0.49388694  0.40169936  0.44444484     1.01300
C1970       C  0.87415170  0.41795497  0.53570995     1.00000
C1971       C  0.58880976  0.40750825  0.53675444     0.99400
C1972       C  0.60444374  0.04297370  0.44383735     1.01400
C1973       C  0.95478364  0.06307784  0.51031661     1.00400
C1974       C  0.93962580  0.42862851  0.60617101     0.99200
C1975       C  0.94782416  0.34319978  0.50895463     0.99300
C1976       C  0.96605299  0.51298514  0.44345995     1.01900
H1977       H  0.93337414  0.41113712  0.54815196     0.29200
O1978       O  0.95748852  0.43418875  0.54106027    -1.06000
H1979       H  0.52170599  0.48600350  0.45752473     0.31300
O1980       O  0.52154856  0.48604527  0.47733326    -1.08600
C1981       C  0.60761860  0.16754901  0.82790816    -0.22300
C1982       C  0.64256758  0.17140228  0.84088035    -0.10400
C1983       C  0.63843329  0.14474015  0.86204884     0.28500
C1984       C  0.60001644  0.11582185  0.87067433    -0.22300
C1985       C  0.56507890  0.11366010  0.85893813    -0.10400
C1986       C  0.56912287  0.13889869  0.83677444     0.28500
F1987       F  0.53631879  0.13737149  0.82442963    -0.20900
H1988       H  0.60985639  0.18728707  0.81115461     0.16900
H1989       H  0.59786476  0.09620557  0.88748798     0.16900
F1990       F  0.67120865  0.14681012  0.87479887    -0.20900
C1991       C  0.52558641  0.23353415  0.05622261    -0.22300
C1992       C  0.52903118  0.26833451  0.04345271    -0.10400
C1993       C  0.50157476  0.26393209  0.02268663     0.28500
C1994       C  0.97274419  0.22553127  0.01382877    -0.22300
C1995       C  0.97200601  0.19091703  0.02468361    -0.10400
C1996       C  0.49750958  0.19504707  0.04689300     0.28500
F1997       F  0.49757973  0.16249609  0.05820146    -0.20900
H1998       H  0.54586522  0.23591208  0.07270578     0.16900
H1999       H  0.95292940  0.22319028  0.99701841     0.16900
F2000       F  0.50374387  0.29648699  0.00979223    -0.20900
C2001       C  0.92898724  0.27402672  0.19955099    -0.22300
C2002       C  0.89466487  0.27572330  0.19066944    -0.10400
C2003       C  0.89945831  0.30628231  0.17235418     0.28500
C2004       C  0.93822182  0.33576963  0.16443433    -0.22300
C2005       C  0.97269973  0.33531120  0.17455468    -0.10400
C2006       C  0.96771450  0.30384630  0.19193351     0.28500
F2007       F  0.00005733  0.30195581  0.20182141    -0.20900
H2008       H  0.92602521  0.25054374  0.21351846     0.16900
H2009       H  0.94117913  0.35952885  0.15074978     0.16900
F2010       F  0.86724805  0.30932648  0.16335157    -0.20900
C2011       C  0.77375455  0.50225668  0.49712695    -0.22300
C2012       C  0.81049299  0.01245174  0.51271222    -0.10400
C2013       C  0.80427268  0.47652598  0.52935431     0.28500
C2014       C  0.76572086  0.44754981  0.53790231    -0.22300
C2015       C  0.73094331  0.44656460  0.52685761    -0.10400
C2016       C  0.73524721  0.47352000  0.50581941     0.28500
F2017       F  0.70265278  0.47365114  0.49450473    -0.20900
H2018       H  0.77804525  0.03108915  0.48481102     0.16900
H2019       H  0.76328017  0.42675985  0.55397364     0.16900
F2020       F  0.83893743  0.98557790  0.54519838    -0.20900
C2021       C  0.71542038  0.07248430  0.70817784    -0.22300
C2022       C  0.70971625  0.10542122  0.70248413    -0.10400
C2023       C  0.67326376  0.09865208  0.69054048     0.28500
C2024       C  0.64325882  0.05942989  0.68398252    -0.22300
C2025       C  0.64944973  0.02662307  0.68898601    -0.10400
C2026       C  0.68556974  0.03328807  0.70149059     0.28500
F2027       F  0.69325316  0.00251403  0.70563203    -0.20900
H2028       H  0.74328335  0.07716256  0.71764361     0.16900
H2029       H  0.61563216  0.05477741  0.67413377     0.16900
F2030       F  0.66626698  0.12966026  0.68574304    -0.20900
C2031       C  0.80798631  0.39199776  0.35056564    -0.22300
C2032       C  0.81244755  0.35863462  0.35754255    -0.10400
C2033       C  0.84536020  0.36440864  0.37388896     0.28500
C2034       C  0.87462755  0.40336610  0.38152264    -0.22300
C2035       C  0.87140127  0.43699329  0.37319649    -0.10400
C2036       C  0.83737150  0.43097178  0.35817663     0.28500
F2037       F  0.83246549  0.46254834  0.35084841    -0.20900
H2038       H  0.78257978  0.38807246  0.33811560     0.16900
H2039       H  0.90040220  0.40723607  0.39350049     0.16900
F2040       F  0.85097542  0.33304732  0.38087075    -0.20900
C2041       C  0.95888187  0.11198308  0.16977990    -0.22300
C2042       C  0.93030524  0.11726693  0.18453537    -0.10400
C2043       C  0.89124222  0.08384462  0.18909073     0.28500
C2044       C  0.88236033  0.04509864  0.18103203    -0.22300
C2045       C  0.91219458  0.03955157  0.16820061    -0.10400
C2046       C  0.95025345  0.07351726  0.16197978     0.28500
F2047       F  0.98027002  0.06947869  0.14995137    -0.20900
H2048       H  0.98932555  0.13709488  0.16633404     0.16900
H2049       H  0.85249259  0.01947097  0.18510125     0.16900
F2050       F  0.86242079  0.08845935  0.20237168    -0.20900
C2051       C  0.57873084  0.12136127  0.37185980    -0.22300
C2052       C  0.61840738  0.12858726  0.36826672    -0.10400
C2053       C  0.64838178  0.16540572  0.35710934     0.28500
C2054       C  0.63850304  0.19445156  0.34929440    -0.22300
C2055       C  0.59872684  0.18709477  0.35273108    -0.10400
C2056       C  0.56882768  0.15039698  0.36411653     0.28500
F2057       F  0.52968813  0.14168109  0.36637967    -0.20900
H2058       H  0.55536512  0.09313187  0.38068717     0.16900
H2059       H  0.66177933  0.22254052  0.34023453     0.16900
F2060       F  0.68738558  0.17390670  0.35482353    -0.20900
C2061       C  0.74662206  0.45684084  0.03998784    -0.22300
C2062       C  0.78509072  0.46184768  0.03449751    -0.10400
C2063       C  0.81524608  0.49796092  0.02256395     0.28500
C2064       C  0.80666810  0.02840783  0.01584163    -0.22300
C2065       C  0.76794629  0.02308042  0.02091888    -0.10400
C2066       C  0.73800447  0.48716082  0.03334093     0.28500
F2067       F  0.69983645  0.48037542  0.03771899    -0.20900
H2068       H  0.72311304  0.42931133  0.04947872     0.16900
H2069       H  0.82997986  0.05573795  0.00601914     0.16900
F2070       F  0.85323964  0.50444452  0.01815423    -0.20900
C2071       C  0.73310905  0.20066920  0.53012852    -0.22300
C2072       C  0.76219210  0.19598617  0.51555935    -0.10400
C2073       C  0.79979316  0.23019450  0.50895686     0.28500
C2074       C  0.80756199  0.26867844  0.51618205    -0.22300
C2075       C  0.77827781  0.27345031  0.53041718    -0.10400
C2076       C  0.74095914  0.23905404  0.53755293     0.28500
F2077       F  0.71202144  0.24238803  0.55175898    -0.20900
H2078       H  0.70373527  0.17478045  0.53503808     0.16900
H2079       H  0.83699356  0.29457307  0.51142368     0.16900
F2080       F  0.82909955  0.22645326  0.49560825    -0.20900
C2081       C  0.90023079  0.31520536  0.69801004    -0.22300
C2082       C  0.92992736  0.35055734  0.68519004    -0.10400
C2083       C  0.96868267  0.35584367  0.68001009     0.28500
C2084       C  0.97716617  0.32553503  0.68687586    -0.22300
C2085       C  0.94736309  0.28994005  0.69936160    -0.10400
C2086       C  0.90878712  0.28492172  0.70502783     0.28500
F2087       F  0.87929887  0.25060988  0.71710381    -0.20900
H2088       H  0.86992338  0.31024362  0.70151095     0.16900
H2089       H  0.00744287  0.33050430  0.68323106     0.16900
F2090       F  0.99825745  0.39026394  0.66812016    -0.20900
C2091       C  0.57169772  0.36911969  0.86263358    -0.22300
C2092       C  0.60194192  0.36313727  0.85105934    -0.10400
C2093       C  0.64093222  0.39655932  0.84617651     0.28500
C2094       C  0.64929589  0.43548668  0.85293771    -0.22300
C2095       C  0.61889535  0.44123002  0.86457090    -0.10400
C2096       C  0.57992123  0.40787467  0.86912545     0.28500
F2097       F  0.54971228  0.41282015  0.87985518    -0.20900
H2098       H  0.54112207  0.34399848  0.86562051     0.16900
H2099       H  0.67974504  0.46084313  0.84995304     0.16900
F2100       F  0.67079229  0.39154814  0.83488349    -0.20900
C2101       C  0.68587636  0.10131568  0.19902139    -0.22300
C2102       C  0.65181843  0.07265235  0.18442111    -0.10400
C2103       C  0.64737972  0.03453111  0.17811361     0.28500
C2104       C  0.67742146  0.02585132  0.18581333    -0.22300
C2105       C  0.71187247  0.05498408  0.19989509    -0.10400
C2106       C  0.71589800  0.09281244  0.20651400     0.28500
F2107       F  0.74920171  0.12193945  0.21988074    -0.20900
H2108       H  0.69038218  0.13116749  0.20348958     0.16900
H2109       H  0.67334281  0.99617437  0.18130357     0.16900
F2110       F  0.61428813  0.00590607  0.16431073    -0.20900
C2111       C  0.57414783  0.35493715  0.35799709    -0.22300
C2112       C  0.56943794  0.38238315  0.37446878    -0.10400
C2113       C  0.60398220  0.41861871  0.38321512     0.28500
C2114       C  0.64229525  0.42798244  0.37432385    -0.22300
C2115       C  0.64675396  0.40163418  0.35657165    -0.10400
C2116       C  0.61261492  0.36423691  0.34929086     0.28500
F2117       F  0.61628132  0.33724059  0.33306540    -0.20900
H2118       H  0.54814543  0.32631227  0.35188368     0.16900
H2119       H  0.66809560  0.45700963  0.38003170     0.16900
F2120       F  0.60084326  0.44590473  0.39950573    -0.20900
C2121       C  0.77430306  0.23731142  0.05849105    -0.22300
C2122       C  0.73929362  0.20869359  0.04416626    -0.10400
C2123       C  0.74332266  0.18686746  0.02240045     0.28500
C2124       C  0.78167673  0.19535192  0.01416269    -0.22300
C2125       C  0.81680961  0.22723473  0.02640573    -0.10400
C2126       C  0.81281696  0.24662937  0.04973018     0.28500
F2127       F  0.84577187  0.27627397  0.06304460    -0.20900
H2128       H  0.77218165  0.25386489  0.07591618     0.16900
H2129       H  0.78366141  0.17895154  0.99658547     0.16900
F2130       F  0.71062397  0.15891652  0.00801611    -0.20900
C2131       C  0.99809980  0.21521246  0.50212543    -0.22300
C2132       C  0.00447588  0.25410488  0.50782996    -0.10400
C2133       C  0.53989370  0.28272184  0.52104897     0.28500
C2134       C  0.56845779  0.27225297  0.52906132    -0.22300
C2135       C  0.56154475  0.23296757  0.52412825    -0.10400
C2136       C  0.52655571  0.20467343  0.50997162     0.28500
F2137       F  0.51825738  0.16604288  0.50570469    -0.20900
H2138       H  0.97065471  0.19269220  0.49185594     0.16900
H2139       H  0.59536427  0.29439578  0.54002040     0.16900
F2140       F  0.54727735  0.32083979  0.52585646    -0.20900
C2141       C  0.83813753  0.38595240  0.83112986    -0.22300
C2142       C  0.84125924  0.42264654  0.83983883    -0.10400
C2143       C  0.87462603  0.44990750  0.85566457     0.28500
C2144       C  0.90331847  0.43968014  0.86378588    -0.22300
C2145       C  0.89888129  0.40198674  0.85644698    -0.10400
C2146       C  0.86680257  0.37566020  0.83921006     0.28500
F2147       F  0.86148106  0.33899610  0.83160730    -0.20900
H2148       H  0.81290172  0.36462496  0.81850109     0.16900
H2149       H  0.92821883  0.46063623  0.87680952     0.16900
F2150       F  0.87958726  0.48630687  0.86326651    -0.20900
C2151       C  0.97875649  0.09168011  0.71086880    -0.22300
C2152       C  0.98352827  0.06383379  0.69487928    -0.10400
C2153       C  0.94971953  0.02542311  0.68928154     0.28500
C2154       C  0.91107199  0.01673928  0.69729628    -0.22300
C2155       C  0.90594924  0.04607869  0.71113235    -0.10400
C2156       C  0.94029418  0.08325781  0.71865630     0.28500
F2157       F  0.93673763  0.11270340  0.73196187    -0.20900
H2158       H  0.00427116  0.12155177  0.71524057     0.16900
H2159       H  0.88517332  0.98743474  0.69229906     0.16900
F2160       F  0.95381000  0.99720500  0.67480530    -0.20900
C2161       C  0.79387903  0.99937885  0.71630121     0.79200
N2162       N  0.79114020  0.51829703  0.73959393    -0.79100
C2163       C  0.82620386  0.54732604  0.75201166     0.81700
N2164       N  0.86231073  0.55595155  0.74172233    -0.79000
C2165       C  0.86536428  0.53746534  0.71925330     0.81800
N2166       N  0.83117252  0.50917296  0.70644825    -0.80800
C2167       C  0.58735861  0.63163497  0.66961098     0.79200
N2168       N  0.58376210  0.61737283  0.64324831    -0.79100
C2169       C  0.54825036  0.58391174  0.63487399     0.81700
N2170       N  0.51719626  0.56533332  0.65265125    -0.79000
C2171       C  0.52057871  0.57882632  0.67868891     0.81800
N2172       N  0.55538068  0.61213210  0.68694032    -0.80800
C2173       C  0.77922881  0.97258795  0.83154575     0.79200
N2174       N  0.75946750  0.95486433  0.80734566    -0.79100
C2175       C  0.76519863  0.92537541  0.79545719     0.81700
N2176       N  0.79069306  0.91510205  0.80712589    -0.79000
C2177       C  0.81051531  0.93249272  0.83044358     0.81800
N2178       N  0.80479983  0.96116148  0.84270178    -0.80800
C2179       C  0.94358578  0.83970635  0.87773790     0.79200
N2180       N  0.95619625  0.85450243  0.90384911    -0.79100
C2181       C  0.95170153  0.88605142  0.91324722     0.81700
N2182       N  0.93471341  0.90183078  0.89689824    -0.79000
C2183       C  0.92238025  0.88762205  0.87128569     0.81800
N2184       N  0.92653860  0.85650283  0.86184949    -0.80800
C2185       C  0.94527061  0.80583196  0.49765221     0.79200
N2186       N  0.97060247  0.79433661  0.50904893    -0.79100
C2187       C  0.97648082  0.76579150  0.49687659     0.81700
N2188       N  0.95726700  0.74865511  0.47336149    -0.79000
C2189       C  0.93201179  0.75903565  0.46145615     0.81800
N2190       N  0.92593870  0.78833204  0.47329581    -0.80800
C2191       C  0.60798560  0.67225971  0.54533426     0.79200
N2192       N  0.59061346  0.68867461  0.52937841    -0.79100
C2193       C  0.58635876  0.71982251  0.53866448     0.81700
N2194       N  0.59889584  0.73450958  0.56414516    -0.79000
C2195       C  0.61614833  0.71903843  0.58052960     0.81800
N2196       N  0.62071971  0.68745266  0.57131857    -0.80800
C2197       C  0.92187776  0.79834604  0.00304585     0.79200
N2198       N  0.88903116  0.77832894  0.01976938    -0.79100
C2199       C  0.85483481  0.74483283  0.01080179     0.81700
N2200       N  0.85321351  0.73197812  0.98479627    -0.79000
C2201       C  0.88471576  0.75117800  0.96759801     0.81800
N2202       N  0.91964266  0.78461810  0.97662548    -0.80800
C2203       C  0.62726368  0.66627025  0.04910872     0.79200
N2204       N  0.66429218  0.67525674  0.03931374    -0.79100
C2205       C  0.69889920  0.70220918  0.05230704     0.81700
N2206       N  0.69653315  0.72094470  0.07496630    -0.79000
C2207       C  0.66058651  0.71320387  0.08528956     0.81800
N2208       N  0.62518068  0.68492591  0.07275761    -0.80800
C2209       C  0.95771520  0.83255967  0.38288151     0.79200
N2210       N  0.99469963  0.84413049  0.37168414    -0.79100
C2211       C  0.52911172  0.87272398  0.38396941     0.81700
N2212       N  0.52675667  0.88983281  0.40736721    -0.79000
C2213       C  0.99114635  0.87975207  0.41899062     0.81800
N2214       N  0.95575141  0.85024028  0.40710343    -0.80800
C2215       C  0.75389184  0.96592372  0.33523757     0.79200
N2216       N  0.75194198  0.95109615  0.30919483    -0.79100
C2217       C  0.71609546  0.91905413  0.29978679     0.81700
N2218       N  0.68329012  0.90265677  0.31609429    -0.79000
C2219       C  0.68492545  0.91663500  0.34170867     0.81800
N2220       N  0.71998749  0.94850255  0.35110959    -0.80800
C2221       C  0.60570425  0.63488282  0.16673121     0.79200
N2222       N  0.62351628  0.61777919  0.18146539    -0.79100
C2223       C  0.62548057  0.58562257  0.17156572     0.81700
N2224       N  0.61029922  0.57082605  0.14657391    -0.79000
C2225       C  0.59251367  0.58694147  0.13128188     0.81800
N2226       N  0.59016277  0.61950876  0.14114336    -0.80800
C2227       C  0.77031300  0.50297082  0.21283191     0.79200
N2228       N  0.78746270  0.51993792  0.23776565    -0.79100
C2229       C  0.78104301  0.54945801  0.24876874     0.81700
N2230       N  0.75758524  0.56075856  0.23541964    -0.79000
C2231       C  0.74056046  0.54435450  0.21117742     0.81800
N2232       N  0.74654144  0.51525192  0.19994067    -0.80800
C2233       C  0.54114288  0.75437712  0.83476485     0.79200
N2234       N  0.55673760  0.75402513  0.80934288    -0.79100
C2235       C  0.58936326  0.78892131  0.79942493     0.81700
N2236       N  0.60530961  0.82305326  0.81447626    -0.79000
C2237       C  0.59020673  0.82375353  0.83924377     0.81800
N2238       N  0.55802256  0.78960873  0.84923487    -0.80800
C2239       C  0.67099712  0.55128389  0.87905362     0.79200
N2240       N  0.65846122  0.51560835  0.86564273    -0.79100
C2241       C  0.62926383  0.98035849  0.87642739     0.81700
N2242       N  0.61283777  0.98019211  0.90084248    -0.79000
C2243       C  0.62434324  0.51448896  0.91476878     0.81800
N2244       N  0.65407296  0.55074876  0.90412864    -0.80800
C2245       C  0.87344359  0.90359356  0.66834745     0.79200
N2246       N  0.88910394  0.91837371  0.64280130    -0.79100
C2247       C  0.91959574  0.91282640  0.63256739     0.81700
N2248       N  0.93336498  0.89255981  0.64741722    -0.79000
C2249       C  0.91824218  0.87793572  0.67240128     0.81800
N2250       N  0.88808040  0.88304455  0.68274454    -0.80800
C2251       C  0.50471292  0.73749293  0.71343035     0.79200
N2252       N  0.98878749  0.72060147  0.73852756    -0.79100
C2253       C  0.95750870  0.72450825  0.74920012     0.81700
N2254       N  0.94333541  0.74519143  0.73521454    -0.79000
C2255       C  0.95871704  0.76181727  0.71071947     0.81800
N2256       N  0.98950935  0.75821210  0.69989841    -0.80800
C2257       C  0.70483376  0.58655541  0.50068185     0.79200
N2258       N  0.72004793  0.62228764  0.51433371    -0.79100
C2259       C  0.75115845  0.65670676  0.50389521     0.81700
N2260       N  0.76698430  0.65573326  0.47946282    -0.79000
C2261       C  0.75293309  0.62104445  0.46522249     0.81800
N2262       N  0.72116959  0.58579834  0.47558258    -0.80800
C2263       C  0.83426994  0.88388711  0.54502629     0.79200
N2264       N  0.81776191  0.88391831  0.57013888    -0.79100
C2265       C  0.78670600  0.84826407  0.58048898     0.81700
N2266       N  0.77329575  0.81379864  0.56627745    -0.79000
C2267       C  0.78929915  0.81317003  0.54190860     0.81800
N2268       N  0.81995266  0.84806781  0.53136218    -0.80800
C2269       C  0.70950421  0.57308759  0.00266161     0.79200
N2270       N  0.72556637  0.55454486  0.01775116    -0.79100
C2271       C  0.75677638  0.55062174  0.00804528     0.81700
N2272       N  0.77216705  0.56514598  0.98301661    -0.79000
C2273       C  0.75712050  0.58364496  0.96738750     0.81800
N2274       N  0.72521131  0.58751342  0.97700199    -0.80800
C2275       C  0.83872997  0.90506836  0.04704958     0.79200
N2276       N  0.82133960  0.88664147  0.07160460    -0.79100
C2277       C  0.79003960  0.89070850  0.08221244     0.81700
N2278       N  0.77760960  0.91342406  0.06882605    -0.79000
C2279       C  0.79492247  0.93207236  0.04512741     0.81800
N2280       N  0.82532709  0.92787571  0.03431708    -0.80800
C2281       C  0.67245960  0.57260245  0.38189613     0.79200
N2282       N  0.65890560  0.59504800  0.36883157    -0.79100
C2283       C  0.62901655  0.59997226  0.37975307     0.81700
N2284       N  0.61247364  0.58264676  0.40390649    -0.79000
C2285       C  0.62505913  0.56027561  0.41757082     0.81800
N2286       N  0.65573680  0.55530608  0.40683270    -0.80800
C2287       C  0.54109243  0.73814152  0.33466496     0.79200
N2288       N  0.55649147  0.71881054  0.34960206    -0.79100
C2289       C  0.58727810  0.71430302  0.33979243     0.81700
N2290       N  0.60277048  0.72873951  0.31485879    -0.79000
C2291       C  0.58825238  0.74780374  0.29941220     0.81800
N2292       N  0.55684494  0.75246687  0.30904433    -0.80800
C2293       C  0.49921127  0.72040830  0.21026895     0.79200
N2294       N  0.98462288  0.71684906  0.23666134    -0.79100
C2295       C  0.95036029  0.68179887  0.24469123     0.81700
N2296       N  0.93117775  0.65113742  0.22660587    -0.79000
C2297       C  0.94491126  0.65445645  0.20063953     0.81800
N2298       N  0.97892500  0.68881965  0.19276906    -0.80800
C2299       C  0.86792108  0.92772261  0.16374502     0.79200
N2300       N  0.88686866  0.92520600  0.14034826    -0.79100
C2301       C  0.91465982  0.96018415  0.12732952     0.81700
N2302       N  0.92200273  0.99617281  0.13713203    -0.79000
C2303       C  0.90348910  0.99910445  0.15970679     0.81800
N2304       N  0.87637567  0.96493315  0.17303449    -0.80800
C2305       C  0.76805047  0.75191248  0.33592605     0.79200
N2306       N  0.75552925  0.75413618  0.30979036    -0.79100
C2307       C  0.75953821  0.79003902  0.30051148     0.81700
N2308       N  0.77592485  0.82265424  0.31703073    -0.79000
C2309       C  0.78822428  0.82081423  0.34266317     0.81800
N2310       N  0.78451317  0.78562964  0.35197302    -0.80800
C2311       C  0.93273886  0.54864571  0.38193398     0.79200
N2312       N  0.95266203  0.55070297  0.40606124    -0.79100
C2313       C  0.94731251  0.51550630  0.41770854     0.81700
N2314       N  0.92251714  0.97999856  0.40559774    -0.79000
C2315       C  0.90255224  0.97763996  0.38236122     0.81800
N2316       N  0.90727262  0.51168189  0.37071173    -0.80800
C2317       C  0.76765255  0.71644476  0.71356515     0.79200
N2318       N  0.78667427  0.71808928  0.73805565    -0.79100
C2319       C  0.78219017  0.68289717  0.74920484     0.81700
N2320       N  0.75856742  0.64742385  0.73641278    -0.79000
C2321       C  0.73943433  0.64545841  0.71279201     0.81800
N2322       N  0.74391830  0.67982667  0.70141077    -0.80800
C2323       C  0.60048322  0.91852865  0.66981138     0.79200
N2324       N  0.58629777  0.92009845  0.64408225    -0.79100
C2325       C  0.59013558  0.95593194  0.63473880     0.81700
N2326       N  0.60826856  0.98913483  0.65066387    -0.79000
C2327       C  0.62256800  0.98798661  0.67572696     0.81800
N2328       N  0.61885370  0.95289950  0.68518195    -0.80800
C2329       C  0.91994921  0.56615280  0.49931220     0.79200
N2330       N  0.92152301  0.58465934  0.47469577    -0.79100
C2331       C  0.88594383  0.57830015  0.46286412     0.81700
N2332       N  0.85035410  0.55320414  0.47495134    -0.79000
C2333       C  0.84851138  0.53467458  0.49873820     0.81800
N2334       N  0.88325066  0.54137026  0.51093298    -0.80800
C2335       C  0.62291920  0.90243381  0.54635133     0.79200
N2336       N  0.65827511  0.92245702  0.53205749    -0.79100
C2337       C  0.69338663  0.92707149  0.54253423     0.81700
N2338       N  0.69326310  0.91190323  0.56740178    -0.79000
C2339       C  0.65912395  0.89206742  0.58211193     0.81800
N2340       N  0.62333892  0.88726276  0.57185261    -0.80800
C2341       C  0.78681581  0.73003671  0.21103755     0.79200
N2342       N  0.82084545  0.74693472  0.19532386    -0.79100
C2343       C  0.85598549  0.75050712  0.20475449     0.81700
N2344       N  0.85736290  0.73741403  0.23020620    -0.79000
C2345       C  0.82438631  0.72047267  0.24638902     0.81800
N2346       N  0.78858183  0.71678616  0.23699113    -0.80800
C2347       C  0.58429818  0.89615068  0.16518006     0.79200
N2348       N  0.54738092  0.87092780  0.17649090    -0.79100
C2349       C  0.51277431  0.86541990  0.16460254     0.81700
N2350       N  0.51500962  0.88542771  0.14144123    -0.79000
C2351       C  0.55077910  0.91073689  0.12961781     0.81800
N2352       N  0.58614327  0.91598827  0.14113377    -0.80800
C2353       C  0.93469702  0.58527335  0.00108565     0.79200
N2354       N  0.92366766  0.58803515  0.97465062    -0.79100
C2355       C  0.92723570  0.62380926  0.96566505     0.81700
N2356       N  0.94128171  0.65555496  0.98276070    -0.79000
C2357       C  0.95171390  0.65313942  0.00878865     0.81800
N2358       N  0.94880891  0.61817350  0.01782285    -0.80800
C2359       C  0.59594282  0.88008232  0.04983731     0.79200
N2360       N  0.61685415  0.88213370  0.07343630    -0.79100
C2361       C  0.61033166  0.84679871  0.08553041     0.81700
N2362       N  0.58276010  0.81099039  0.07481190    -0.79000
C2363       C  0.56159924  0.80858528  0.05218990     0.81800
N2364       N  0.56840754  0.84309659  0.03961987    -0.80800
C2365       C  0.75421397  0.73325975  0.83149379     0.79200
N2366       N  0.71751235  0.70876581  0.84320429    -0.79100
C2367       C  0.68281076  0.70278932  0.83129252     0.81700
N2368       N  0.68471310  0.72169290  0.80772513    -0.79000
C2369       C  0.72024270  0.74629635  0.79550268     0.81800
N2370       N  0.75578954  0.75204790  0.80701584    -0.80800
C2371       C  0.95657879  0.56827764  0.87847855     0.79200
N2372       N  0.99100499  0.58574314  0.86309049    -0.79100
C2373       C  0.52635613  0.59006802  0.87315548     0.81700
N2374       N  0.52700709  0.57623363  0.89841431    -0.79000
C2375       C  0.99354074  0.55822033  0.91395746     0.81800
N2376       N  0.95783432  0.55444853  0.90432802    -0.80800
O2377       O  0.86372733  0.58941990  0.78888832    -0.81100
O2378       O  0.73098298  0.61565580  0.88631824    -0.82700
O2379       O  0.77225886  0.53120749  0.82688720    -0.79700
O2380       O  0.78372438  0.64454836  0.78700844    -0.78100
O2381       O  0.83212480  0.71189859  0.78429429    -0.79900
O2382       O  0.80117740  0.52313240  0.86596146    -0.80800
O2383       O  0.72298339  0.58146402  0.84589701    -0.82100
O2384       O  0.79637173  0.57031478  0.78488902    -0.82400
Eu2385     Eu  0.79073287  0.60358136  0.82529679     2.39200
O2386       O  0.80640599  0.66742922  0.84114447    -0.89900
O2387       O  0.84198776  0.59058653  0.84133033    -0.93500
C2388       C  0.82822701  0.56978914  0.77698446     1.01100
C2389       C  0.70966023  0.58645957  0.86929227     1.01000
C2390       C  0.78237487  0.51037880  0.84262459     1.00900
C2391       C  0.80030019  0.68020256  0.77537887     0.98800
H2392       H  0.76829151  0.57897018  0.88118808     0.28500
O2393       O  0.79221843  0.60197687  0.87380857    -1.02300
H2394       H  0.85582802  0.65315004  0.79004885     0.28500
O2395       O  0.85582193  0.65333652  0.80988412    -1.04900
O2396       O  0.84355823  0.71304092  0.92940614    -0.82100
O2397       O  0.97903757  0.69151282  0.82777672    -0.81600
O2398       O  0.79636088  0.58230146  0.92941865    -0.80100
O2399       O  0.81942356  0.73924919  0.82654074    -0.83400
O2400       O  0.91892117  0.72482982  0.78709329    -0.81300
O2401       O  0.89373217  0.56697090  0.88628724    -0.79900
O2402       O  0.92889310  0.66536700  0.92850000    -0.81400
O2403       O  0.94453971  0.77833234  0.88602260    -0.83400
O2404       O  0.88303567  0.59694863  0.92869868    -0.80100
O2405       O  0.91731832  0.78570057  0.84585826    -0.82800
O2406       O  0.77353125  0.62785270  0.92996044    -0.78500
O2407       O  0.92850210  0.59378033  0.84621930    -0.78500
O2408       O  0.93823367  0.67670471  0.78492674    -0.78200
O2409       O  0.78158492  0.70891865  0.86501993    -0.81700
O2410       O  0.91213744  0.73601181  0.92967786    -0.81100
O2411       O  0.98719177  0.72815723  0.86696360    -0.79400
Eu2412     Eu  0.80471709  0.66657957  0.88935225     2.39800
Eu2413     Eu  0.90603664  0.63901779  0.82578542     2.39600
Eu2414     Eu  0.84269615  0.58946564  0.88938621     2.38400
Eu2415     Eu  0.87105675  0.71817970  0.82520900     2.39900
Eu2416     Eu  0.92039988  0.70483888  0.88942945     2.39800
O2417       O  0.92012204  0.70369568  0.84123693    -0.93900
O2418       O  0.85603877  0.65370990  0.90421062    -0.92700
C2419       C  0.88002367  0.73326152  0.94012563     1.01300
C2420       C  0.00051692  0.72156309  0.84409979     1.00000
C2421       C  0.77617155  0.59838137  0.94029677     0.99400
C2422       C  0.78842689  0.72899855  0.84219063     1.01400
C2423       C  0.93795220  0.70802983  0.77572138     1.00400
C2424       C  0.92290689  0.57470731  0.86932280     0.99200
C2425       C  0.91300186  0.62884116  0.93883720     0.99300
C2426       C  0.93689712  0.79952786  0.86885318     1.01900
H2427       H  0.93028773  0.64081450  0.88124097     0.29200
O2428       O  0.90723948  0.64179873  0.87403761    -1.06000
H2429       H  0.86947576  0.74106301  0.88102916     0.31300
O2430       O  0.86800716  0.71689359  0.87375230    -1.08600
O2431       O  0.95001989  0.92567017  0.95080078    -0.81100
O2432       O  0.60475562  0.94653997  0.05399111    -0.82700
O2433       O  0.58319452  0.97449675  0.95207654    -0.79700
O2434       O  0.98329788  0.86106024  0.99455814    -0.78100
O2435       O  0.94858831  0.85333419  0.03464102    -0.79900
O2436       O  0.60471008  0.54245414  0.95023299    -0.80800
O2437       O  0.57511316  0.90913977  0.01517218    -0.82100
O2438       O  0.99590184  0.90314656  0.95058968    -0.82400
Eu2439     Eu  0.53476983  0.93465916  0.99105380     2.39200
O2440       O  0.53530188  0.93670440  0.03914814    -0.89900
O2441       O  0.52231339  0.98591029  0.97590560    -0.93500
C2442       C  0.96615495  0.90535348  0.94023216     1.01100
C2443       C  0.59401421  0.91525337  0.03846455     1.01000
C2444       C  0.60337667  0.01056486  0.94089969     1.00900
C2445       C  0.95441477  0.83952377  0.01171359     0.98800
H2446       H  0.60993626  0.99887891  0.99945064     0.28500
O2447       O  0.58573059  0.99771937  0.00650192    -1.02300
H2448       H  0.94714859  0.89859815  0.99898895     0.28500
O2449       O  0.97014886  0.92269347  0.00625986    -1.04900
O2450       O  0.59375011  0.54854917  0.09338613    -0.82100
O2451       O  0.93450023  0.52313600  0.99295163    -0.81600
O2452       O  0.64749125  0.57336326  0.99420046    -0.80100
O2453       O  0.01258162  0.91388849  0.09244578    -0.83400
O2454       O  0.89844326  0.89985040  0.05290886    -0.81300
O2455       O  0.53427105  0.55869777  0.95149287    -0.79900
O2456       O  0.56026024  0.60920583  0.05268699    -0.81400
O2457       O  0.95729264  0.49719128  0.09057761    -0.83400
O2458       O  0.59872960  0.61582696  0.01477234    -0.80100
O2459       O  0.93864838  0.93024224  0.09493773    -0.82800
O2460       O  0.65499601  0.54650187  0.03444722    -0.78500
O2461       O  0.96572698  0.51254079  0.95029738    -0.78500
O2462       O  0.89217695  0.93135659  0.01465546    -0.78200
O2463       O  0.58015679  0.96181459  0.09563019    -0.81700
O2464       O  0.54594013  0.56848550  0.09471294    -0.81100
O2465       O  0.96198497  0.55848642  0.03281757    -0.79400
Eu2466     Eu  0.58686956  0.00086353  0.05500056     2.39800
Eu2467     Eu  0.95792788  0.97306010  0.99027552     2.39600
Eu2468     Eu  0.57371789  0.55002286  0.99062308     2.38400
Eu2469     Eu  0.97140175  0.92162571  0.05480699     2.39900
Eu2470     Eu  0.50758120  0.53669981  0.05373088     2.39800
O2471       O  0.95864713  0.97274129  0.03836724    -0.93900
O2472       O  0.57200836  0.54943245  0.03867660    -0.92700
C2473       C  0.57692546  0.56779259  0.10441865     1.01300
C2474       C  0.94225089  0.55232935  0.00989256     1.00000
C2475       C  0.66890145  0.56597588  0.01145364     0.99400
C2476       C  0.54825423  0.92992905  0.10409500     1.01400
C2477       C  0.87813251  0.91053708  0.03714291     1.00400
C2478       C  0.49790920  0.54286400  0.94064333     0.99200
C2479       C  0.59205871  0.62923980  0.03756611     0.99300
C2480       C  0.93772988  0.96202918  0.10256352     1.01900
H2481       H  0.50940046  0.56075743  0.99814880     0.29200
O2482       O  0.51051280  0.53784577  0.00542808    -1.06000
H2483       H  0.52142895  0.98673720  0.08978937     0.31300
O2484       O  0.52180983  0.98665200  0.06998174    -1.08600
O2485       O  0.92862163  0.71739280  0.42453747    -0.81100
O2486       O  0.76739432  0.68953975  0.32762272    -0.82700
O2487       O  0.89194424  0.77388201  0.38733248    -0.79700
O2488       O  0.79188316  0.66025169  0.42724824    -0.78100
O2489       O  0.77302167  0.59293424  0.42943839    -0.79900
O2490       O  0.92946759  0.78177564  0.34859771    -0.80800
O2491       O  0.79356715  0.72355437  0.36810737    -0.82100
O2492       O  0.87974509  0.73562660  0.42825816    -0.82400
Eu2493     Eu  0.83927381  0.70135096  0.38859099     2.39200
O2494       O  0.79070177  0.63764513  0.37282429    -0.89900
O2495       O  0.90347581  0.71473806  0.37220689    -0.93500
C2496       C  0.91242809  0.73678762  0.43620982     1.01100
C2497       C  0.77473746  0.71831605  0.34484411     1.01000
C2498       C  0.92303827  0.79465677  0.37174165     1.00900
C2499       C  0.77299680  0.62441882  0.43868498     0.98800
H2500       H  0.84125511  0.72622128  0.33282517     0.28500
O2501       O  0.84240395  0.70331753  0.34008187    -1.02300
H2502       H  0.85574873  0.65228142  0.42366972     0.28500
O2503       O  0.85530022  0.65211245  0.40383743    -1.04900
O2504       O  0.78271719  0.59075701  0.28588997    -0.82100
O2505       O  0.93972458  0.61432924  0.38663166    -0.81600
O2506       O  0.86544098  0.72305279  0.28448266    -0.80100
O2507       O  0.73247334  0.56782566  0.38758046    -0.83400
O2508       O  0.84715858  0.58000743  0.42555861    -0.81300
O2509       O  0.97948583  0.73966054  0.32690050    -0.79900
O2510       O  0.91287393  0.63997037  0.28307779    -0.81400
O2511       O  0.81636571  0.52762768  0.32714236    -0.83400
O2512       O  0.93511133  0.70824323  0.28308257    -0.80100
O2513       O  0.78216998  0.51954482  0.36752754    -0.82800
O2514       O  0.79719378  0.67620931  0.28366760    -0.78500
O2515       O  0.98762599  0.71298168  0.36699231    -0.78500
O2516       O  0.91447540  0.62884389  0.42849025    -0.78200
O2517       O  0.72405539  0.59593907  0.34828647    -0.81700
O2518       O  0.82895539  0.56876124  0.28406145    -0.81100
O2519       O  0.90957653  0.57673541  0.34797503    -0.79400
Eu2520     Eu  0.79008736  0.63872310  0.32467912     2.39800
Eu2521     Eu  0.92010701  0.66723941  0.38772119     2.39600
Eu2522     Eu  0.90547286  0.71617614  0.32415424     2.38400
Eu2523     Eu  0.80512332  0.58726181  0.38834706     2.39900
Eu2524     Eu  0.86792639  0.60107743  0.32397480     2.39800
O2525       O  0.86892053  0.60282376  0.37209627    -0.93900
O2526       O  0.85422594  0.65189629  0.30982459    -0.92700
C2527       C  0.79838206  0.57036980  0.27476253     1.01300
C2528       C  0.92918810  0.58318532  0.37102342     1.00000
C2529       C  0.82907325  0.70624304  0.27351577     0.97000
C2530       C  0.71122550  0.57702910  0.37154269     1.01400
C2531       C  0.88297958  0.59669512  0.43709270     1.00400
C2532       C  0.00108872  0.73211480  0.34389630     0.99200
C2533       C  0.93240688  0.67636440  0.27230874     0.99300
C2534       C  0.78743592  0.50612222  0.34425667     1.01900
H2535       H  0.94261566  0.66547683  0.33158312     0.29200
O2536       O  0.91867804  0.66428403  0.33916974    -1.06000
H2537       H  0.78023322  0.56491666  0.33283842     0.31300
O2538       O  0.80345713  0.58888177  0.33995498    -1.08600
O2539       O  0.72741842  0.94155480  0.72027566    -0.81100
O2540       O  0.74673457  0.80832411  0.61798789    -0.82700
O2541       O  0.81272572  0.90635411  0.66065881    -0.79700
O2542       O  0.69923041  0.89186151  0.61934366    -0.78100
O2543       O  0.63082040  0.84580365  0.61806433    -0.79900
O2544       O  0.82081842  0.88011271  0.70093054    -0.80800
O2545       O  0.76987075  0.87674567  0.61713942    -0.82100
O2546       O  0.76506164  0.94936325  0.68166324    -0.82400
Eu2547     Eu  0.73905668  0.88340034  0.65786486     2.39200
O2548       O  0.68761708  0.81936814  0.64272587    -0.89900
O2549       O  0.73746597  0.88242259  0.70582191    -0.93500
C2550       C  0.75880666  0.96216002  0.70483184     1.01100
C2551       C  0.76716801  0.84451660  0.60709313     1.01000
C2552       C  0.83416171  0.89874491  0.67771582     1.00900
C2553       C  0.66295970  0.87605037  0.60848649     0.98800
H2554       H  0.77545500  0.83212577  0.66530769     0.28500
O2555       O  0.75137213  0.83095292  0.67262263    -1.02300
H2556       H  0.67460475  0.89369253  0.66654780     0.28500
O2557       O  0.67596457  0.87081726  0.67356968    -1.04900
O2558       O  0.64878626  0.69433669  0.66059200    -0.82100
O2559       O  0.62688950  0.82833331  0.76112655    -0.81600
O2560       O  0.77303731  0.78141433  0.71895896    -0.80100
O2561       O  0.61528488  0.75927231  0.61800069    -0.83400
O2562       O  0.59969288  0.85612962  0.66141314    -0.81300
O2563       O  0.76138748  0.88367121  0.75835222    -0.79900
O2564       O  0.68130531  0.74819965  0.75840107    -0.81400
O2565       O  0.56562053  0.73483522  0.71979179    -0.83400
O2566       O  0.74877872  0.79658731  0.76134108    -0.80100
O2567       O  0.55721110  0.76291069  0.68047641    -0.82800
O2568       O  0.74255613  0.74378309  0.68037593    -0.78500
O2569       O  0.71332995  0.90300901  0.76192530    -0.78500
O2570       O  0.62696296  0.89071044  0.70159168    -0.78200
O2571       O  0.66070077  0.73618448  0.61746197    -0.81700
O2572       O  0.61502112  0.68653864  0.70109537    -0.81100
O2573       O  0.60715899  0.76072358  0.76270854    -0.79400
Eu2574     Eu  0.70019392  0.76793719  0.65738066     2.39800
Eu2575     Eu  0.67324674  0.86914324  0.72199877     2.39600
Eu2576     Eu  0.75319081  0.83421945  0.72095607     2.38400
Eu2577     Eu  0.62352275  0.80632584  0.65781973     2.39900
Eu2578     Eu  0.63824402  0.75463151  0.72141926     2.39800
O2579       O  0.62437481  0.80546125  0.70602642    -0.93900
O2580       O  0.70184731  0.76969760  0.70540704    -0.92700
C2581       C  0.62024095  0.67279133  0.67794910     1.01300
C2582       C  0.60804910  0.79240239  0.77241678     1.00000
C2583       C  0.76275149  0.75047425  0.70318468     0.99400
C2584       C  0.63101602  0.73865444  0.60732028     1.01400
C2585       C  0.60732516  0.88499720  0.67860867     1.00400
C2586       C  0.74555701  0.90338527  0.77008570     0.99200
C2587       C  0.71719977  0.76463196  0.76987197     0.99300
C2588       C  0.54424661  0.74357481  0.70353335     1.01900
H2589       H  0.68909763  0.81941236  0.75676581     0.29200
O2590       O  0.68853930  0.81932514  0.73694993    -1.06000
H2591       H  0.61280500  0.73186130  0.66590127     0.31300
O2592       O  0.63595626  0.75588014  0.67310060    -1.08600
O2593       O  0.69836270  0.75538892  0.12216319    -0.81100
O2594       O  0.56293632  0.78099827  0.21948847    -0.82700
O2595       O  0.60318441  0.69576897  0.16042404    -0.79700
O2596       O  0.61478283  0.80887452  0.12209394    -0.78100
O2597       O  0.66296859  0.87618062  0.11860277    -0.79900
O2598       O  0.63356611  0.68872362  0.19905228    -0.80800
O2599       O  0.55527112  0.74584819  0.17963701    -0.82100
O2600       O  0.63083385  0.73577409  0.11860926    -0.82400
Eu2601     Eu  0.62347139  0.76816239  0.15915038     2.39200
O2602       O  0.63871511  0.83204179  0.17458285    -0.89900
O2603       O  0.67527270  0.75596768  0.17490174    -0.93500
C2604       C  0.66280474  0.73562773  0.11041253     1.01100
C2605       C  0.54123087  0.75217132  0.20230844     1.01000
C2606       C  0.61304247  0.67503008  0.17635439     1.00900
C2607       C  0.63064610  0.84438732  0.11047106     0.98800
H2608       H  0.60036062  0.74378055  0.21475135     0.28500
O2609       O  0.62462814  0.76661866  0.20754756    -1.02300
H2610       H  0.68812737  0.81806735  0.12385920     0.28500
O2611       O  0.68835415  0.81834316  0.14367746    -1.04900
O2612       O  0.67533205  0.87906683  0.26212924    -0.82100
O2613       O  0.81128126  0.86043649  0.16044450    -0.81600
O2614       O  0.62840850  0.74719376  0.26209751    -0.80100
O2615       O  0.64998654  0.90278632  0.16026264    -0.83400
O2616       O  0.75060772  0.89012807  0.12011727    -0.81300
O2617       O  0.72483443  0.73013269  0.21938280    -0.79900
O2618       O  0.76128146  0.83127333  0.26283743    -0.81400
O2619       O  0.77524428  0.94357295  0.21993143    -0.83400
O2620       O  0.71535231  0.76287694  0.26314420    -0.80100
O2621       O  0.74842073  0.95101255  0.17955244    -0.82800
O2622       O  0.60567756  0.79282845  0.26282096    -0.78500
O2623       O  0.76047940  0.75846866  0.17980089    -0.78500
O2624       O  0.77025129  0.84223120  0.11787686    -0.78200
O2625       O  0.61237615  0.87261267  0.19880172    -0.81700
O2626       O  0.74382276  0.90163584  0.26313652    -0.81100
O2627       O  0.81933862  0.89765602  0.19935238    -0.79400
Eu2628     Eu  0.63692363  0.83130892  0.22264777     2.39800
Eu2629     Eu  0.73924583  0.80481408  0.15937376     2.39600
Eu2630     Eu  0.67584247  0.75487024  0.22289918     2.38400
Eu2631     Eu  0.70308859  0.88323992  0.15876623     2.39900
Eu2632     Eu  0.75291541  0.87036144  0.22324189     2.39800
O2633       O  0.75180390  0.86866709  0.17513824    -0.93900
O2634       O  0.68855547  0.81893123  0.23765517    -0.92700
C2635       C  0.71166553  0.89953529  0.27298042     1.01300
C2636       C  0.83177891  0.89200737  0.17581152     1.00000
C2637       C  0.60796816  0.76307255  0.27281992     0.99400
C2638       C  0.61886918  0.89234128  0.17589256     1.01400
C2639       C  0.76971247  0.87345802  0.10859684     1.00400
C2640       C  0.75394586  0.73794235  0.20238465     0.99200
C2641       C  0.74514883  0.79485635  0.27345978     0.99300
C2642       C  0.76698164  0.96451673  0.20291272     1.01900
H2643       H  0.76362956  0.80575611  0.21514038     0.29200
O2644       O  0.74089353  0.80732248  0.20785021    -1.06000
H2645       H  0.70083845  0.90558239  0.21450033     0.31300
O2646       O  0.70007641  0.88170478  0.20728027    -1.08600
O2647       O  0.00669938  0.54479165  0.59689778    -0.81100
O2648       O  0.64441921  0.52234966  0.49477289    -0.82700
O2649       O  0.59178286  0.49710327  0.59711189    -0.79700
O2650       O  0.60893402  0.61081374  0.55403308    -0.78100
O2651       O  0.58270447  0.61833717  0.51347552    -0.79900
O2652       O  0.54563646  0.92866868  0.59743069    -0.80800
O2653       O  0.65110772  0.56038174  0.53301856    -0.82100
O2654       O  0.57541934  0.56809565  0.59720882    -0.82400
Eu2655     Eu  0.58518354  0.53714195  0.55730003     2.39200
O2656       O  0.58500234  0.53569791  0.50916319    -0.89900
O2657       O  0.52047500  0.98585133  0.57123561    -0.93500
C2658       C  0.54320300  0.56526632  0.60759883     1.01100
C2659       C  0.66501510  0.55326654  0.51053768     1.01000
C2660       C  0.57537069  0.96063180  0.60779108     1.00900
C2661       C  0.60166149  0.63209440  0.53665284     0.98800
H2662       H  0.59574008  0.97360561  0.54904890     0.28500
O2663       O  0.57269522  0.97443894  0.54161644    -1.02300
H2664       H  0.53425950  0.57331962  0.54872897     0.28500
O2665       O  0.53285135  0.54911268  0.54146460    -1.04900
O2666       O  0.52953091  0.92150364  0.45598818    -0.82100
O2667       O  0.89515377  0.94782098  0.55249730    -0.81600
O2668       O  0.55955165  0.90002113  0.55380499    -0.80100
O2669       O  0.58512957  0.55945568  0.45508263    -0.83400
O2670       O  0.98514404  0.57220398  0.49455284    -0.81300
O2671       O  0.95992436  0.91299680  0.59527671    -0.79900
O2672       O  0.93704220  0.86376561  0.49353170    -0.81400
O2673       O  0.94961197  0.97750224  0.45495329    -0.83400
O2674       O  0.96771191  0.85644049  0.53192080    -0.80100
O2675       O  0.99802624  0.54464729  0.45213612    -0.82800
O2676       O  0.59410458  0.92646787  0.51362644    -0.78500
O2677       O  0.93739310  0.95880132  0.59633820    -0.78500
O2678       O  0.94713616  0.54208842  0.53300626    -0.78200
O2679       O  0.60415120  0.51114363  0.45272689    -0.81700
O2680       O  0.96227374  0.90268641  0.45247153    -0.81100
O2681       O  0.88801935  0.91246864  0.51279693    -0.79400
Eu2682     Eu  0.57151952  0.47139775  0.49314045     2.39800
Eu2683     Eu  0.96915909  0.99869402  0.55645958     2.39600
Eu2684     Eu  0.50801321  0.92188670  0.55652001     2.38400
Eu2685     Eu  0.53651743  0.55077892  0.49302103     2.39900
Eu2686     Eu  0.95636966  0.93612885  0.49265616     2.39800
O2687       O  0.97124991  0.99996117  0.50825957    -0.93900
O2688       O  0.50740914  0.92294224  0.50853851    -0.92700
C2689       C  0.49379332  0.90190644  0.44431088     1.01300
C2690       C  0.87404796  0.91819323  0.53566511     1.00000
C2691       C  0.58877345  0.90782302  0.53687167     0.99400
C2692       C  0.60432307  0.54284191  0.44373582     1.01400
C2693       C  0.95416568  0.56213358  0.51017266     1.00400
C2694       C  0.93946501  0.92873739  0.60609251     0.99200
C2695       C  0.94806822  0.84335828  0.50889172     0.99300
C2696       C  0.96620722  0.01311435  0.44335349     1.01900
H2697       H  0.93326387  0.91131073  0.54811655     0.29200
O2698       O  0.95740627  0.93433323  0.54102652    -1.06000
H2699       H  0.52167911  0.98612952  0.45750379     0.31300
O2700       O  0.52145063  0.98612526  0.47731229    -1.08600
C2701       C  0.60784490  0.66867883  0.82843908    -0.22300
C2702       C  0.64280010  0.67258804  0.84143855    -0.10400
C2703       C  0.63868786  0.64595664  0.86262327     0.28500
C2704       C  0.60028339  0.61690424  0.87116188    -0.22300
C2705       C  0.56532164  0.61454246  0.85930975    -0.10400
C2706       C  0.56935649  0.63985792  0.83719862     0.28500
F2707       F  0.53653441  0.63815193  0.82475058    -0.20900
H2708       H  0.61007045  0.68841304  0.81168583     0.16900
H2709       H  0.59815195  0.59727010  0.88795729     0.16900
F2710       F  0.67146970  0.64809632  0.87541668    -0.20900
C2711       C  0.52686621  0.73366966  0.05562134    -0.22300
C2712       C  0.52979314  0.76841005  0.04311404    -0.10400
C2713       C  0.50186235  0.76391278  0.02268252     0.28500
C2714       C  0.97308362  0.72536223  0.01399804    -0.22300
C2715       C  0.97297700  0.69087116  0.02446850    -0.10400
C2716       C  0.49870579  0.69515611  0.04639962     0.28500
F2717       F  0.49922392  0.66267921  0.05743715    -0.20900
H2718       H  0.54756507  0.73612877  0.07182699     0.16900
H2719       H  0.95254390  0.72285899  0.99764616     0.16900
F2720       F  0.50350519  0.79642362  0.01008571    -0.20900
C2721       C  0.92887037  0.77392375  0.19955331    -0.22300
C2722       C  0.89453337  0.77551009  0.19056065    -0.10400
C2723       C  0.89931044  0.80589110  0.17208435     0.28500
C2724       C  0.93807276  0.83532636  0.16411777    -0.22300
C2725       C  0.97256399  0.83501667  0.17437710    -0.10400
C2726       C  0.96759201  0.80372053  0.19191868     0.28500
F2727       F  0.99994318  0.80200573  0.20198427    -0.20900
H2728       H  0.92593016  0.75057596  0.21364180     0.16900
H2729       H  0.94101555  0.85895484  0.15030966     0.16900
F2730       F  0.86708985  0.80883358  0.16297160    -0.20900
C2731       C  0.77565648  0.01019332  0.50077804    -0.22300
C2732       C  0.80857371  0.50454266  0.50909089    -0.10400
C2733       C  0.80624047  0.98482321  0.53326319     0.28500
C2734       C  0.76772124  0.95553682  0.54155062    -0.22300
C2735       C  0.73285815  0.95373684  0.52994783    -0.10400
C2736       C  0.73713902  0.98102690  0.50917137     0.28500
F2737       F  0.70445638  0.98055752  0.49749145    -0.20900
H2738       H  0.77614086  0.52326802  0.48125131     0.16900
H2739       H  0.76536336  0.93470929  0.55756636     0.16900
F2740       F  0.83698169  0.47710910  0.54109194    -0.20900
C2741       C  0.71527714  0.57248766  0.70832825    -0.22300
C2742       C  0.70954933  0.60541110  0.70264014    -0.10400
C2743       C  0.67307701  0.59862514  0.69072729     0.28500
C2744       C  0.64308388  0.55939988  0.68416603    -0.22300
C2745       C  0.64931017  0.52660973  0.68914400    -0.10400
C2746       C  0.68543932  0.53328900  0.70164223     0.28500
F2747       F  0.69315469  0.50253185  0.70576234    -0.20900
H2748       H  0.74315522  0.57717999  0.71777804     0.16900
H2749       H  0.61544681  0.55473365  0.67432608     0.16900
F2750       F  0.66605942  0.62962424  0.68595965    -0.20900
C2751       C  0.80879311  0.89257370  0.34984154    -0.22300
C2752       C  0.81275673  0.85904027  0.35721696    -0.10400
C2753       C  0.84532690  0.86466578  0.37387961     0.28500
C2754       C  0.87472913  0.90358734  0.38147035    -0.22300
C2755       C  0.87199488  0.93735438  0.37278973    -0.10400
C2756       C  0.83833783  0.93151975  0.35737955     0.28500
F2757       F  0.83395514  0.96324216  0.34956817    -0.20900
H2758       H  0.78367142  0.88879559  0.33713172     0.16900
H2759       H  0.90020903  0.90729735  0.39372703     0.16900
F2760       F  0.85047644  0.83315658  0.38126153    -0.20900
C2761       C  0.95883722  0.61204052  0.16978269    -0.22300
C2762       C  0.93022834  0.61727426  0.18454004    -0.10400
C2763       C  0.89118457  0.58381717  0.18908588     0.28500
C2764       C  0.88236235  0.54508894  0.18103039    -0.22300
C2765       C  0.91223929  0.53958942  0.16821778    -0.10400
C2766       C  0.95027116  0.57358710  0.16199359     0.28500
F2767       F  0.98032806  0.56959039  0.14999066    -0.20900
H2768       H  0.98926713  0.63718042  0.16634307     0.16900
H2769       H  0.85251143  0.51943423  0.18510056     0.16900
F2770       F  0.86233259  0.58837631  0.20237170    -0.20900
C2771       C  0.57860881  0.62134766  0.37179832    -0.22300
C2772       C  0.61827670  0.62855024  0.36822209    -0.10400
C2773       C  0.64830862  0.66540301  0.35713539     0.28500
C2774       C  0.63849044  0.69451403  0.34938500    -0.22300
C2775       C  0.59871800  0.68717453  0.35279782    -0.10400
C2776       C  0.56876155  0.65043746  0.36410353     0.28500
F2777       F  0.52961640  0.64172772  0.36631448    -0.20900
H2778       H  0.55520377  0.59308808  0.38056582     0.16900
H2779       H  0.66180087  0.72262640  0.34037188     0.16900
F2780       F  0.68730141  0.67386212  0.35483903    -0.20900
C2781       C  0.74669972  0.95700566  0.04009108    -0.22300
C2782       C  0.78515384  0.96199714  0.03456410    -0.10400
C2783       C  0.81529031  0.99808729  0.02259494     0.28500
C2784       C  0.80663691  0.52829872  0.01582329    -0.22300
C2785       C  0.76790199  0.52296082  0.02087073    -0.10400
C2786       C  0.73807642  0.98731862  0.03344498     0.28500
F2787       F  0.69993236  0.98056466  0.03788914    -0.20900
H2788       H  0.72320905  0.92949789  0.04961573     0.16900
H2789       H  0.82996816  0.55564933  0.00603257     0.16900
F2790       F  0.85328018  0.00457069  0.01816270    -0.20900
C2791       C  0.73356590  0.70071540  0.53052325    -0.22300
C2792       C  0.76252812  0.69612229  0.51572960    -0.10400
C2793       C  0.79997934  0.73040880  0.50894300     0.28500
C2794       C  0.80766159  0.76887278  0.51615622    -0.22300
C2795       C  0.77846281  0.77355274  0.53058192    -0.10400
C2796       C  0.74133681  0.73907007  0.53794686     0.28500
F2797       F  0.71249501  0.74227481  0.55237621    -0.20900
H2798       H  0.70431467  0.67477293  0.53560121     0.16900
H2799       H  0.83696503  0.79483058  0.51122614     0.16900
F2800       F  0.82921405  0.72677106  0.49540744    -0.20900
C2801       C  0.90028425  0.81551654  0.69820353    -0.22300
C2802       C  0.92984243  0.85063317  0.68508117    -0.10400
C2803       C  0.96847680  0.85572870  0.67970133     0.28500
C2804       C  0.97695850  0.82545378  0.68666369    -0.22300
C2805       C  0.94728743  0.79008207  0.69944566    -0.10400
C2806       C  0.90884244  0.78526832  0.70532199     0.28500
F2807       F  0.87946837  0.75118762  0.71769341    -0.20900
H2808       H  0.87006803  0.81069963  0.70187979     0.16900
H2809       H  0.00714325  0.83028163  0.68284141     0.16900
F2810       F  0.99794394  0.88992965  0.66752684    -0.20900
C2811       C  0.57181154  0.86922228  0.86267782    -0.22300
C2812       C  0.60204250  0.86325649  0.85106137    -0.10400
C2813       C  0.64100973  0.89670108  0.84613870     0.28500
C2814       C  0.64936015  0.93562383  0.85291130    -0.22300
C2815       C  0.61896380  0.94134581  0.86457773    -0.10400
C2816       C  0.58001230  0.90797218  0.86916050     0.28500
F2817       F  0.54979345  0.91289545  0.87989679    -0.20900
H2818       H  0.54125009  0.84409070  0.86569395     0.16900
H2819       H  0.67979239  0.96099558  0.84989718     0.16900
F2820       F  0.67085700  0.89172221  0.83478905    -0.20900
C2821       C  0.68587130  0.60142102  0.19887051    -0.22300
C2822       C  0.65171422  0.57270438  0.18437944    -0.10400
C2823       C  0.64715880  0.53450898  0.17817480     0.28500
C2824       C  0.67718023  0.52579532  0.18587322    -0.22300
C2825       C  0.71172135  0.55497050  0.19985619    -0.10400
C2826       C  0.71586551  0.59287933  0.20636919     0.28500
F2827       F  0.74925567  0.62204009  0.21964196    -0.20900
H2828       H  0.69046243  0.63132803  0.20325153     0.16900
H2829       H  0.67301441  0.49606215  0.18144893     0.16900
F2830       F  0.61395917  0.50583897  0.16448648    -0.20900
C2831       C  0.57411796  0.85540715  0.35784334    -0.22300
C2832       C  0.56936145  0.88300464  0.37411504    -0.10400
C2833       C  0.60387863  0.91935111  0.38273756     0.28500
C2834       C  0.64222421  0.92863238  0.37395314    -0.22300
C2835       C  0.64673987  0.90207262  0.35644269    -0.10400
C2836       C  0.61260970  0.86461471  0.34925509     0.28500
F2837       F  0.61631985  0.83743369  0.33326077    -0.20900
H2838       H  0.54813759  0.82669868  0.35183522     0.16900
H2839       H  0.66801425  0.95772011  0.37956684     0.16900
F2840       F  0.60067557  0.94677383  0.39883719    -0.20900
C2841       C  0.77390406  0.73735950  0.05826643    -0.22300
C2842       C  0.73890062  0.70912005  0.04375547    -0.10400
C2843       C  0.74289234  0.68756902  0.02178835     0.28500
C2844       C  0.78121740  0.69594635  0.01357777    -0.22300
C2845       C  0.81638669  0.72745506  0.02606025    -0.10400
C2846       C  0.81240255  0.74655997  0.04954370     0.28500
F2847       F  0.84537791  0.77575610  0.06310574    -0.20900
H2848       H  0.77179608  0.75365922  0.07585153     0.16900
H2849       H  0.78316511  0.67974725  0.99586721     0.16900
F2850       F  0.71020369  0.65996877  0.00721179    -0.20900
C2851       C  0.99927812  0.71607448  0.50139312    -0.22300
C2852       C  0.00570737  0.75498517  0.50712029    -0.10400
C2853       C  0.54045128  0.78306792  0.52065954     0.28500
C2854       C  0.56890735  0.77246679  0.52872084    -0.22300
C2855       C  0.56166999  0.73300862  0.52406255    -0.10400
C2856       C  0.52643611  0.70463016  0.51017287     0.28500
F2857       F  0.51782071  0.66583759  0.50621867    -0.20900
H2858       H  0.97182956  0.69358984  0.49110953     0.16900
H2859       H  0.59600275  0.79465900  0.53948554     0.16900
F2860       F  0.54818178  0.82138143  0.52512012    -0.20900
C2861       C  0.83694449  0.88510832  0.83182354    -0.22300
C2862       C  0.84049647  0.92212127  0.84017472    -0.10400
C2863       C  0.87428700  0.94967795  0.85554744     0.28500
C2864       C  0.90301208  0.93945787  0.86359566    -0.22300
C2865       C  0.89822251  0.90152264  0.85658499    -0.10400
C2866       C  0.86567472  0.87484768  0.83979685     0.28500
F2867       F  0.86001330  0.83793144  0.83254111    -0.20900
H2868       H  0.81136896  0.86356889  0.81952861     0.16900
H2869       H  0.92826609  0.96064911  0.87627975     0.16900
F2870       F  0.87968778  0.98640706  0.86270037    -0.20900
C2871       C  0.97871277  0.59158902  0.71088811    -0.22300
C2872       C  0.98342046  0.56379737  0.69479057    -0.10400
C2873       C  0.94955307  0.52546908  0.68908840     0.28500
C2874       C  0.91092232  0.51685228  0.69708713    -0.22300
C2875       C  0.90587051  0.54616515  0.71102475    -0.10400
C2876       C  0.94026977  0.58322700  0.71867444     0.28500
F2877       F  0.93680230  0.61262754  0.73211806    -0.20900
H2878       H  0.00427534  0.62138880  0.71535962     0.16900
H2879       H  0.88498387  0.48761996  0.69199753     0.16900
F2880       F  0.95357275  0.49727572  0.67452595    -0.20900
loop_ 
_geom_bond_atom_site_label_1 
_geom_bond_atom_site_label_2 
_geom_bond_distance 
_geom_bond_site_symmetry_2 
_ccdc_geom_bond_type 
C1          C390   1.484       .  S
C1          N722   1.375       .  A
C1          N726   1.362       .  A
N2            C3   1.373       .  A
N2          C721   1.376   1_545  A
C3          C228   1.465       .  S
C3            N4   1.339       .  A
N4            C5   1.336       .  A
C5          C715   1.460       .  S
C5            N6   1.354       .  A
N6          C721   1.362   1_545  A
C7          C421   1.490       .  S
C7            N8   1.372       .  A
C7           N12   1.356       .  A
N8            C9   1.374       .  A
C9          C498   1.471       .  S
C9           N10   1.345       .  A
N10          C11   1.348       .  A
C11        C2152   1.459   1_455  S
C11          N12   1.355       .  A
C13         C950   1.487       .  S
C13          N14   1.376       .  A
C13          N18   1.361       .  A
N14          C15   1.374       .  A
C15         C426   1.467       .  S
C15          N16   1.339       .  A
N16          C17   1.338       .  A
C17         C702   1.459       .  S
C17          N18   1.354       .  A
C19         C266   1.484       .  S
C19          N20   1.373       .  A
C19          N24   1.357       .  A
N20          C21   1.374       .  A
C21         C282   1.468       .  S
C21          N22   1.341       .  A
N22          C23   1.344       .  A
C23         C705   1.457       .  S
C23          N24   1.352       .  A
C25         C535   1.484       .  S
C25          N26   1.359       .  A
C25          N30   1.376       .  A
N26          C27   1.351       .  A
C27         C692   1.452       .  S
C27          N28   1.337       .  A
N28          C29   1.339       .  A
C29         C336   1.464       .  S
C29          N30   1.374       .  A
C31         C501   1.485       .  S
C31          N32   1.357       .  A
C31          N36   1.372       .  A
N32          C33   1.353       .  A
C33         C695   1.452       .  S
C33          N34   1.344       .  A
N34          C35   1.341       .  A
C35         C424   1.466       .  S
C35          N36   1.374       .  A
C37         C285   1.491       .  S
C37          N38   1.361       .  A
C37          N42   1.373   1_554  A
N38          C39   1.358       .  A
C39         C685   1.469       .  S
C39          N40   1.346   1_554  A
N40          C41   1.340       .  A
C41         C259   1.470       .  S
C41          N42   1.372       .  A
C43         C319   1.484       .  S
C43          N44   1.359       .  A
C43          N48   1.375       .  A
N44          C45   1.352       .  A
C45         C682   1.468       .  S
C45          N46   1.340       .  A
N46          C47   1.343       .  A
C47         C444   1.468       .  S
C47          N48   1.374       .  A
C49         C338   1.485       .  S
C49          N50   1.360       .  A
C49          N54   1.377       .  A
N50        C1491   1.352       .  A
C51         C672   1.458       .  S
C51          N52   1.336       .  A
C51        N1490   1.352   1_455  A
N52        C1493   1.338   1_455  A
C53        C1969   1.468       .  S
C53          N54   1.375       .  A
C53        N1492   1.338       .  A
C55        C1094   1.488       .  S
C55          N56   1.373       .  A
C55          N60   1.358       .  A
N56          C57   1.374       .  A
C57         C475   1.468       .  S
C57          N58   1.341       .  A
N58          C59   1.344       .  A
C59         C675   1.458       .  S
C59          N60   1.355       .  A
C61         C446   1.486       .  S
C61          N62   1.356       .  A
C61          N66   1.375       .  A
N62          C63   1.353       .  A
C63         C662   1.455       .  S
C63          N64   1.341       .  A
N64          C65   1.342       .  A
C65         C313   1.468       .  S
C65          N66   1.374       .  A
C67        C1202   1.484   1_545  S
C67          N68   1.374       .  A
C67          N72   1.360       .  A
N68          C69   1.373       .  A
C69         C367   1.462       .  S
C69          N70   1.336       .  A
N70          C71   1.338       .  A
C71         C665   1.453       .  S
C71          N72   1.353       .  A
C73        C1700   1.489       .  S
C73          N74   1.375       .  A
C73          N78   1.358       .  A
N74          C75   1.375       .  A
C75         C422   1.469       .  S
C75          N76   1.342       .  A
N76          C77   1.341       .  A
C77         C652   1.455       .  S
C77          N78   1.354       .  A
C79         C229   1.487       .  S
C79          N80   1.360       .  A
C79          N84   1.375       .  A
N80         C801   1.352   1_545  A
C81         C655   1.452       .  S
C81          N82   1.341       .  A
C81         N800   1.352       .  A
N82         C803   1.339       .  A
C83        C1004   1.469       .  S
C83          N84   1.376       .  A
C83         N802   1.339   1_545  A
C85         C392   1.483       .  S
C85          N86   1.372       .  A
C85          N90   1.360       .  A
N86          C87   1.372       .  A
C87         C534   1.464       .  S
C87          N88   1.340       .  A
N88          C89   1.342       .  A
C89         C642   1.455       .  S
C89          N90   1.353       .  A
C91         C428   1.482       .  S
C91        N1532   1.374   1_455  A
C91        N1536   1.358   1_455  A
N92          C93   1.373       .  A
N92        C1531   1.374       .  A
C93         C263   1.465       .  S
C93          N94   1.341       .  A
N94          C95   1.340       .  A
C95         C645   1.455       .  S
C95          N96   1.352       .  A
N96        C1531   1.358       .  A
C97         C499   1.487       .  S
C97          N98   1.355       .  A
C97         N102   1.377       .  A
N98          C99   1.351       .  A
C99         C632   1.456       .  S
C99         N100   1.342       .  A
N100        C101   1.343       .  A
C101        C339   1.473       .  S
C101        N102   1.376       .  A
C103        C530   1.491       .  S
C103        N104   1.374       .  A
C103        N108   1.361       .  A
N104        C105   1.374       .  A
C105        C391   1.464       .  S
C105        N106   1.338       .  A
N106        C107   1.339       .  A
C107        C635   1.458       .  S
C107        N108   1.356       .  A
C109        C315   1.490       .  S
C109        N110   1.357       .  A
C109        N114   1.375   1_554  A
N110        C111   1.353       .  A
C111        C625   1.457       .  S
C111        N112   1.345   1_554  A
N112        C113   1.343       .  A
C113        C261   1.474       .  S
C113        N114   1.376       .  A
C115        C317   1.486       .  S
C115        N116   1.376       .  A
C115        N120   1.357       .  A
N116        C117   1.376       .  A
C117        C479   1.474       .  S
C117        N118   1.344       .  A
N118        C119   1.342       .  A
C119        C622   1.458       .  S
C119        N120   1.351       .  A
C121        C370   1.486       .  S
C121        N122   1.357       .  A
C121        N126   1.376       .  A
N122        C123   1.351       .  A
C123        C612   1.453       .  S
C123        N124   1.341       .  A
N124        C125   1.343       .  A
C125        C532   1.470       .  S
C125        N126   1.376       .  A
C127       C1812   1.488       .  S
C127        N128   1.358       .  A
C127        N132   1.373       .  A
N128        C129   1.353       .  A
C129        C615   1.452       .  S
C129        N130   1.341       .  A
N130        C131   1.341       .  A
C131        C477   1.463       .  S
C131        N132   1.375       .  A
C133        C445   1.494   1_655  S
C133       N1574   1.373       .  A
C133       N1578   1.356       .  A
N134        C135   1.376       .  A
N134       C1573   1.374       .  A
C135        C373   1.475       .  S
C135        N136   1.346       .  A
N136        C137   1.349       .  A
C137        C602   1.462       .  S
C137        N138   1.356       .  A
N138       C1573   1.356       .  A
C139        C476   1.488       .  S
C139        N140   1.376       .  A
C139        N144   1.364       .  A
N140        C141   1.373       .  A
C141        C320   1.472       .  S
C141        N142   1.342       .  A
N142        C143   1.339       .  A
C143       C1325   1.464       .  S
C143        N144   1.355       .  A
C145        C337   1.489       .  S
C145        N146   1.374       .  A
C145        N150   1.358       .  A
N146        C147   1.375       .  A
C147        C481   1.471       .  S
C147        N148   1.341       .  A
N148        C149   1.345       .  A
C149        C592   1.459       .  S
C149        N150   1.354       .  A
C151        C368   1.486       .  S
C151        N152   1.376       .  A
C151        N156   1.360       .  A
N152        C153   1.374       .  A
C153       C1256   1.467       .  S
C153        N874   1.340   1_545  A
N154        C155   1.338       .  A
N154        C873   1.340       .  A
C155        C595   1.461       .  S
C155        N876   1.353       .  A
N156        C875   1.352   1_545  A
C157        C423   1.487       .  S
C157        N158   1.377       .  A
C157        N162   1.359       .  A
N158        C159   1.376       .  A
C159        C231   1.474       .  S
C159        N160   1.342       .  A
N160        C161   1.341       .  A
C161        C582   1.457       .  S
C161        N162   1.352       .  A
C163        C425   1.489       .  S
C163        N164   1.375       .  A
C163        N168   1.357       .  A
N164        C165   1.376       .  A
C165        C500   1.471       .  S
C165        N166   1.341       .  A
N166        C167   1.344       .  A
C167       C1305   1.455       .  S
C167        N168   1.353       .  A
C169        C533   1.481       .  S
C169        N170   1.376       .  A
C169        N174   1.356       .  A
N170        C171   1.374       .  A
C171        C371   1.467       .  S
C171        N172   1.340       .  A
N172        C173   1.340       .  A
C173        C572   1.460       .  S
C173        N174   1.349       .  A
C175        C531   1.484       .  S
C175        N176   1.359       .  A
C175        N180   1.372       .  A
N176        C177   1.354       .  A
C177        C575   1.461       .  S
C177        N178   1.340       .  A
N178        C179   1.337       .  A
C179        C393   1.459       .  S
C179        N180   1.371       .  A
C181        C480   1.485       .  S
C181        N182   1.357       .  A
C181        N186   1.374       .  A
N182        C183   1.352       .  A
C183        C562   1.462       .  S
C183        N184   1.345       .  A
N184        C185   1.342       .  A
C185        C369   1.471       .  S
C185        N186   1.374       .  A
C187        C478   1.486       .  S
C187        N188   1.359       .  A
C187        N192   1.376       .  A
N188        C189   1.353       .  A
C189       C2005   1.464   1_455  S
C189        N190   1.339       .  A
N190        C191   1.341       .  A
C191        C316   1.468       .  S
C191        N192   1.375       .  A
C193        C314   1.484       .  S
C193        N194   1.372   1_554  A
C193        N198   1.359       .  A
N194        C195   1.372       .  A
C195        C265   1.461       .  S
C195        N196   1.338       .  A
N196        C197   1.343   1_556  A
C197        C555   1.462       .  S
C197        N198   1.354       .  A
C199        C283   1.485       .  S
C199        N200   1.375       .  A
C199        N204   1.359       .  A
N200        C201   1.374       .  A
C201        C447   1.465       .  S
C201        N202   1.341       .  A
N202        C203   1.338       .  A
C203        C552   1.464       .  S
C203        N204   1.353       .  A
C205        C262   1.482       .  S
C205        N206   1.357       .  A
C205        N210   1.375       .  A
N206        C207   1.351       .  A
C207        C542   1.460       .  S
C207        N208   1.337       .  A
N208        C209   1.339       .  A
C209        C427   1.462       .  S
C209        N210   1.374       .  A
C211        C264   1.486       .  S
C211        N212   1.359       .  A
C211        N216   1.373       .  A
N212       C1653   1.354       .  A
C213        C545   1.462       .  S
C213        N214   1.342       .  A
C213       N1652   1.354   1_455  A
N214       C1655   1.338   1_455  A
C215       C1758   1.465       .  S
C215        N216   1.373       .  A
C215       N1654   1.338       .  A
O217        C228   1.304       .  A
O217       Eu253   2.514       .  S
O218        C229   1.294       .  A
O218       Eu252   2.489       .  S
O219        C230   1.292       .  A
O219       Eu225   2.482       .  S
O220        C231   1.306       .  A
O220       Eu225   2.529       .  S
O221        C231   1.282       .  A
O221       Eu255   2.418       .  S
O222        C230   1.298       .  A
O222       Eu254   2.485       .  S
O223        C229   1.298       .  A
O223       Eu225   2.486       .  S
O224        C228   1.281       .  A
O224       Eu225   2.405       .  S
Eu225       O235   2.364       .  S
Eu225       O227   2.369       .  S
Eu225       O226   2.326       .  S
Eu225       O233   2.362       .  S
O226       Eu255   2.372       .  S
O226       Eu252   2.345       .  S
O227       Eu253   2.326       .  S
O227       Eu254   2.338       .  S
C230        C733   1.487   1_545  S
H232        O233   0.963       .  S
O233       Eu254   2.323       .  S
O233       Eu252   2.383       .  S
H234        O235   0.965       .  S
O235       Eu253   2.362       .  S
O235       Eu255   2.358       .  S
O236        C259   1.309       .  A
O236       Eu252   2.545       .  S
O237        C260   1.291       .  A
O237       Eu253   2.480       .  S
O238        C261   1.310       .  A
O238       Eu254   2.549       .  S
O239        C262   1.289       .  A
O239       Eu255   2.466       .  S
O240        C263   1.305       .  A
O240       Eu255   2.522       .  S
O241        C264   1.294       .  A
O241       Eu254   2.487       .  S
O242        C265   1.309       .  A
O242       Eu256   2.542       .  S
O243        C266   1.292       .  A
O243       Eu256   2.477       .  S
O244        C265   1.276       .  A
O244       Eu254   2.376       .  S
O245        C266   1.298       .  A
O245       Eu255   2.486       .  S
O246        C261   1.279       .  A
O246       Eu252   2.396       .  S
O247        C264   1.297       .  A
O247       Eu253   2.482       .  S
O248        C263   1.280       .  A
O248       Eu253   2.400       .  S
O249        C262   1.299       .  A
O249       Eu252   2.488       .  S
O250        C259   1.278       .  A
O250       Eu256   2.391       .  S
O251        C260   1.298       .  A
O251       Eu256   2.487       .  S
Eu252       O270   2.330       .  S
Eu252       O258   2.350       .  S
Eu253       O257   2.366       .  S
Eu253       O268   2.348       .  S
Eu254       O268   2.379       .  S
Eu254       O258   2.350       .  S
Eu255       O257   2.328       .  S
Eu255       O270   2.364       .  S
Eu256       O257   2.344       .  S
Eu256       O268   2.317       .  S
Eu256       O270   2.381       .  S
Eu256       O258   2.352       .  S
C260       C1513   1.489       .  S
H267        O268   0.961       .  S
H269        O270   0.961       .  S
O271        C282   1.310       .  A
O271       Eu307   2.546       .  S
O272        C283   1.292       .  A
O272       Eu306   2.482       .  S
O273        C284   1.311       .  A
O273       Eu279   2.550       .  S
O274        C285   1.295   1_556  A
O274      Eu1719   2.490       .  S
O275        C285   1.299       .  A
O275       Eu309   2.493       .  S
O276       C1004   1.277       .  A
O276       Eu308   2.383       .  S
O277        C283   1.297       .  A
O277       Eu279   2.482   1_554  S
O278        C282   1.278       .  A
O278      Eu1719   2.385       .  S
Eu279      O1714   2.491   1_455  S
Eu279      O1718   2.386   1_455  S
Eu279       O281   2.346       .  S
Eu279       O280   2.340   1_556  S
Eu279       O287   2.328   1_556  S
Eu279      O1729   2.381   1_456  S
O280       Eu306   2.367       .  S
O280      Eu1749   2.327   1_455  S
O281      Eu1747   2.349   1_455  S
O281      Eu1028   2.351       .  S
C284        C803   1.469       .  S
C284        O996   1.277       .  A
H286        O287   0.963   1_556  S
O287       Eu306   2.361       .  S
O287      Eu1028   2.386   1_554  S
H288        O289   0.963   1_556  S
O289       Eu307   2.323   1_554  S
O289       Eu309   2.362       .  S
O289      Eu1719   2.380   1_554  S
O290        C313   1.306       .  A
O290      Eu1026   2.524       .  S
O291        C314   1.293   1_556  A
O291      Eu1027   2.484   1_545  S
O292        C315   1.293   1_556  A
O292       Eu308   2.486       .  S
O293       C1756   1.305       .  A
O293       Eu309   2.518       .  S
O294        C317   1.290       .  A
O294       Eu309   2.466       .  S
O295        C318   1.310   1_455  A
O295       Eu308   2.543       .  S
O296        C319   1.290       .  A
O296       Eu310   2.470       .  S
O297       C1040   1.302       .  A
O297      Eu1750   2.503   1_565  S
O298        C319   1.298       .  A
O298       Eu308   2.485   1_554  S
O299        C320   1.283       .  A
O299       Eu309   2.425       .  S
O300        C315   1.300       .  A
O300      Eu1026   2.495       .  S
O301       C1758   1.278       .  A
O301      Eu1027   2.386   1_545  S
O302        C317   1.300       .  A
O302       Eu307   2.492   1_554  S
O303        C316   1.282       .  A
O303       Eu306   2.410       .  S
O304        C313   1.281       .  A
O304       Eu310   2.405       .  S
O305        C314   1.297       .  A
O305      Eu1750   2.482       .  S
Eu306      O1010   2.524       .  S
Eu306      O1020   2.496       .  S
Eu306       O324   2.367       .  S
Eu306      O1032   2.328       .  S
Eu307      O1011   2.484       .  S
Eu307      O1021   2.386       .  S
Eu307       O311   2.339   1_556  S
Eu307      O1721   2.349       .  S
Eu307      O2482   2.385   1_556  S
Eu308       O322   2.323   1_556  S
Eu308       O312   2.338   1_556  S
Eu308      O1001   2.351   1_545  S
Eu308      O1007   2.386   1_546  S
Eu309       O311   2.369       .  S
Eu309      O1720   2.327       .  S
Eu309      O1764   2.362       .  S
Eu310      O1737   2.502   1_445  S
Eu310      O1745   2.482   1_455  S
Eu310       O322   2.352       .  S
Eu310       O312   2.363       .  S
Eu310      O2471   2.327   1_445  S
Eu310      O1044   2.364   1_545  S
O311      Eu2470   2.327       .  S
O312      Eu1026   2.327       .  S
C316       O1733   1.305       .  A
C318       C1655   1.465       .  S
C318       O1741   1.278       .  A
C320       O1017   1.302       .  A
H321        O322   0.963   1_556  S
O322      Eu2467   2.385   1_444  S
H323        O324   0.963       .  S
O324      Eu1749   2.362   1_455  S
O324      Eu1030   2.363       .  S
O325        C336   1.305       .  A
O325       Eu361   2.520       .  S
O326        C337   1.294       .  A
O326       Eu360   2.488       .  S
O327        C338   1.290       .  A
O327       Eu333   2.471       .  S
O328        C339   1.307       .  A
O328       Eu333   2.535       .  S
O329        C339   1.281       .  A
O329       Eu363   2.409       .  S
O330        C338   1.299       .  A
O330       Eu362   2.490       .  S
O331        C337   1.298       .  A
O331       Eu333   2.488       .  S
O332        C336   1.280       .  A
O332       Eu333   2.401       .  S
Eu333       O343   2.362       .  S
Eu333       O335   2.369       .  S
Eu333       O334   2.321       .  S
Eu333       O341   2.362       .  S
O334       Eu363   2.369       .  S
O334       Eu360   2.343       .  S
O335       Eu361   2.320       .  S
O335       Eu362   2.338       .  S
H340        O341   0.962       .  S
O341       Eu362   2.328       .  S
O341       Eu360   2.379       .  S
H342        O343   0.965       .  S
O343       Eu361   2.366       .  S
O343       Eu363   2.362       .  S
O344        C367   1.309       .  A
O344       Eu360   2.541       .  S
O345        C368   1.291       .  A
O345       Eu361   2.475       .  S
O346        C369   1.310       .  A
O346       Eu362   2.547       .  S
O347        C370   1.291       .  A
O347       Eu363   2.479       .  S
O348        C371   1.306       .  A
O348       Eu363   2.524       .  S
O349        C372   1.294       .  A
O349       Eu362   2.492       .  S
O350        C373   1.311       .  A
O350       Eu364   2.560       .  S
O351        C374   1.294       .  A
O351       Eu364   2.492       .  S
O352        C373   1.278       .  A
O352       Eu362   2.388       .  S
O353        C374   1.298       .  A
O353       Eu363   2.487       .  S
O354        C369   1.279       .  A
O354       Eu360   2.391       .  S
O355        C372   1.297       .  A
O355       Eu361   2.482       .  S
O356        C371   1.281       .  A
O356       Eu361   2.404       .  S
O357        C370   1.299       .  A
O357       Eu360   2.487       .  S
O358        C367   1.276       .  A
O358       Eu364   2.376       .  S
O359        C368   1.298       .  A
O359       Eu364   2.488       .  S
Eu360       O378   2.322       .  S
Eu360       O366   2.345       .  S
Eu361       O365   2.366       .  S
Eu361       O376   2.362       .  S
Eu362       O376   2.384       .  S
Eu362       O366   2.344       .  S
Eu363       O365   2.330       .  S
Eu363       O378   2.358       .  S
Eu364       O365   2.343       .  S
Eu364       O376   2.325       .  S
Eu364       O378   2.386       .  S
Eu364       O366   2.346       .  S
C372       C1567   1.488       .  S
C374        C775   1.489   1_545  S
H375        O376   0.962       .  S
H377        O378   0.961       .  S
O379        C390   1.292       .  A
O379       Eu415   2.484       .  S
O380        C391   1.309       .  A
O380       Eu414   2.541       .  S
O381        C392   1.293       .  A
O381       Eu387   2.484       .  S
O382        C393   1.307       .  A
O382       Eu387   2.527       .  S
O383        C393   1.277       .  A
O383       Eu417   2.380       .  S
O384        C392   1.295       .  A
O384       Eu416   2.475       .  S
O385        C391   1.277       .  A
O385       Eu387   2.381       .  S
O386        C390   1.296       .  A
O386       Eu387   2.478       .  S
Eu387       O397   2.328       .  S
Eu387       O389   2.334       .  S
Eu387       O388   2.352       .  S
Eu387       O395   2.380       .  S
O388       Eu417   2.349       .  S
O388       Eu414   2.348       .  S
O389       Eu415   2.368       .  S
O389       Eu416   2.318       .  S
H394        O395   0.963       .  S
O395       Eu416   2.353       .  S
O395       Eu414   2.326       .  S
H396        O397   0.961       .  S
O397       Eu415   2.358       .  S
O397       Eu417   2.384       .  S
O398        C421   1.294       .  A
O398       Eu414   2.494       .  S
O399        C422   1.307       .  A
O399       Eu415   2.533       .  S
O400        C423   1.291       .  A
O400       Eu416   2.478       .  S
O401        C424   1.310       .  A
O401       Eu417   2.548       .  S
O402        C425   1.293       .  A
O402       Eu417   2.485       .  S
O403        C426   1.306       .  A
O403       Eu416   2.521       .  S
O404        C427   1.306       .  A
O404       Eu418   2.522       .  S
O405        C428   1.290       .  A
O405       Eu418   2.471       .  S
O406        C427   1.278       .  A
O406       Eu416   2.390       .  S
O407        C428   1.297       .  A
O407       Eu417   2.478       .  S
O408        C423   1.298       .  A
O408       Eu414   2.484       .  S
O409        C426   1.280       .  A
O409       Eu415   2.404       .  S
O410        C425   1.299       .  A
O410       Eu415   2.490       .  S
O411        C424   1.277       .  A
O411       Eu414   2.378       .  S
O412        C421   1.298       .  A
O412       Eu418   2.487       .  S
O413        C422   1.280       .  A
O413       Eu418   2.401       .  S
Eu414       O432   2.375       .  S
Eu414       O420   2.337       .  S
Eu415       O419   2.328       .  S
Eu415       O430   2.361       .  S
Eu416       O430   2.362       .  S
Eu416       O420   2.369       .  S
Eu417       O419   2.345       .  S
Eu417       O432   2.319       .  S
Eu418       O419   2.369       .  S
Eu418       O430   2.361       .  S
Eu418       O432   2.353       .  S
Eu418       O420   2.323       .  S
H429        O430   0.964       .  S
H431        O432   0.962       .  S
O433        C444   1.303       .  A
O433       Eu469   2.508       .  S
O434        C445   1.294       .  A
O434       Eu468   2.491       .  S
O435        C446   1.289       .  A
O435       Eu441   2.465       .  S
O436        C447   1.303       .  A
O436       Eu441   2.505       .  S
O437        C447   1.281       .  A
O437       Eu471   2.408       .  S
O438        C446   1.299       .  A
O438       Eu470   2.493       .  S
O439        C445   1.300       .  A
O439       Eu441   2.498       .  S
O440        C444   1.282       .  A
O440       Eu441   2.415       .  S
Eu441       O451   2.364       .  S
Eu441       O443   2.364       .  S
Eu441       O442   2.325       .  S
Eu441       O449   2.356       .  S
O442       Eu471   2.369       .  S
O442       Eu468   2.339       .  S
O443       Eu469   2.328       .  S
O443       Eu470   2.335       .  S
H448        O449   0.964       .  S
O449       Eu470   2.327       .  S
O449       Eu468   2.382       .  S
H450        O451   0.964       .  S
O451       Eu469   2.363       .  S
O451       Eu471   2.361       .  S
O452        C475   1.309       .  A
O452       Eu468   2.541       .  S
O453        C476   1.293       .  A
O453       Eu469   2.486       .  S
O454        C477   1.309       .  A
O454       Eu470   2.541       .  S
O455        C478   1.291       .  A
O455       Eu471   2.478       .  S
O456        C479   1.307       .  A
O456       Eu471   2.530       .  S
O457        C480   1.292       .  A
O457       Eu470   2.479       .  S
O458        C481   1.311       .  A
O458       Eu472   2.551       .  S
O459        C482   1.293       .  A
O459       Eu472   2.482       .  S
O460        C481   1.278       .  A
O460       Eu470   2.389       .  S
O461        C482   1.299       .  A
O461       Eu471   2.489       .  S
O462        C477   1.276       .  A
O462       Eu468   2.377       .  S
O463        C480   1.299       .  A
O463       Eu469   2.486       .  S
O464        C479   1.282       .  A
O464       Eu469   2.413       .  S
O465        C478   1.298       .  A
O465       Eu468   2.483       .  S
O466        C475   1.278       .  A
O466       Eu472   2.391       .  S
O467        C476   1.298       .  A
O467       Eu472   2.488       .  S
Eu468       O486   2.323       .  S
Eu468       O474   2.352       .  S
Eu469       O473   2.359       .  S
Eu469       O484   2.359       .  S
Eu470       O484   2.388       .  S
Eu470       O474   2.350       .  S
Eu471       O473   2.324       .  S
Eu471       O486   2.362       .  S
Eu472       O473   2.341       .  S
Eu472       O484   2.331       .  S
Eu472       O486   2.385       .  S
Eu472       O474   2.350       .  S
C482        C787   1.484       .  S
H483        O484   0.963       .  S
H485        O486   0.962       .  S
O487       C1938   1.309       .  A
O487      Eu1243   2.544   1_545  S
O488        C499   1.289       .  A
O488       Eu522   2.462   1_545  S
O489       C1220   1.311       .  A
O489       Eu495   2.554   1_565  S
O490        C501   1.293       .  A
O490       Eu495   2.485       .  S
O491        C501   1.297       .  A
O491       Eu525   2.482       .  S
O492        C500   1.278       .  A
O492       Eu524   2.385       .  S
O493        C499   1.301       .  A
O493       Eu495   2.500       .  S
O494        C498   1.279       .  A
O494       Eu495   2.394       .  S
Eu495       O505   2.380       .  S
Eu495       O496   2.341       .  S
Eu495      O1217   2.346   1_545  S
Eu495      O1223   2.319   1_545  S
O496       Eu525   2.323       .  S
O496       Eu522   2.368   1_545  S
O497       Eu524   2.348       .  S
O497      Eu1215   2.346       .  S
O497      Eu1963   2.349   1_455  S
C498       O1927   1.309       .  A
C500       O1209   1.311       .  A
H502        O503   0.962       .  S
O503       Eu524   2.379       .  S
O503      Eu1215   2.320       .  S
O503      Eu1242   2.360       .  S
H504        O505   0.963       .  S
O505       Eu525   2.359       .  S
O505      Eu2683   2.330   1_445  S
O506        C529   1.306   1_455  A
O506      Eu1242   2.521       .  S
O507        C530   1.295       .  A
O507       Eu523   2.498       .  S
O508        C531   1.293       .  A
O508       Eu524   2.486       .  S
O509        C532   1.304       .  A
O509       Eu525   2.517       .  S
O510        C533   1.289       .  A
O510      Eu1965   2.463       .  S
O511        C534   1.307       .  A
O511      Eu1964   2.532       .  S
O512        C535   1.290       .  A
O512       Eu526   2.471       .  S
O513        C536   1.304       .  A
O513       Eu526   2.513       .  S
O514        C535   1.298       .  A
O514      Eu1964   2.485       .  S
O515       C1256   1.280       .  A
O515      Eu1965   2.406       .  S
O516        C531   1.297       .  A
O516      Eu1242   2.481       .  S
O517        C534   1.278       .  A
O517       Eu523   2.388       .  S
O518        C533   1.299       .  A
O518      Eu1243   2.483   1_545  S
O519        C532   1.281       .  A
O519       Eu522   2.412   1_545  S
O520       C1969   1.280       .  A
O520       Eu526   2.404       .  S
O521        C530   1.298       .  A
O521       Eu526   2.487       .  S
Eu522      O1226   2.522       .  S
Eu522      O1236   2.480       .  S
Eu522      O1223   2.360       .  S
Eu522      O1260   2.359       .  S
Eu522      O1248   2.321       .  S
Eu523      O1207   2.544       .  S
Eu523      O1238   2.484       .  S
Eu523       O527   2.345       .  S
Eu523       O538   2.382       .  S
Eu523      O1937   2.350       .  S
Eu523      O2665   2.330       .  S
Eu524      O1951   2.532   1_455  S
Eu524      O1954   2.484   1_455  S
Eu524       O528   2.334       .  S
Eu524      O1978   2.326   1_455  S
Eu525      O1950   2.463   1_455  S
Eu525      O1955   2.406   1_455  S
Eu525      O2687   2.377   1_445  S
Eu525      O1260   2.361   1_545  S
Eu526       O527   2.329       .  S
Eu526       O538   2.354       .  S
Eu526      O1980   2.365       .  S
Eu526      O1968   2.367       .  S
O527      Eu2685   2.376       .  S
O528      Eu1242   2.321       .  S
O528      Eu1966   2.367   1_455  S
C529       C1493   1.467       .  S
C529       O1960   1.280       .  A
C536        C873   1.467       .  S
C536       O1235   1.280       .  A
H537        O538   0.962       .  S
O538      Eu1964   2.328       .  S
H539        O540   0.963       .  S
O540      Eu1242   2.359       .  S
O540      Eu1245   2.362       .  S
O540      Eu1966   2.365   1_455  S
C541        C542   1.409       .  A
C541        C546   1.386       .  A
C541        H548   1.083       .  S
C542        C543   1.399       .  A
C543        C544   1.383       .  A
C543        F550   1.357       .  S
C544        C545   1.409       .  A
C544        H549   1.083       .  S
C545        C546   1.401       .  A
C546        F547   1.358       .  S
C551        C552   1.410       .  A
C551        C556   1.387   1_455  A
C551        H558   1.083       .  S
C552        C553   1.399       .  A
C553       C1994   1.384   1_455  A
C553        F560   1.355       .  S
C554        C555   1.408       .  A
C554       C1993   1.384       .  A
C554        H559   1.084   1_554  S
C555       C1996   1.401       .  A
C556       C1995   1.401       .  A
C556        F557   1.358       .  S
C561        C562   1.406       .  A
C561        C566   1.386       .  A
C561        H568   1.084       .  S
C562        C563   1.404       .  A
C563        C564   1.388       .  A
C563        F570   1.358       .  S
C564        C565   1.408       .  A
C564        H569   1.084       .  S
C565       C1629   1.464       .  S
C565        C566   1.401       .  A
C566        F567   1.355       .  S
C571        C576   1.385       .  A
C571       C1292   1.408       .  A
C571       H1298   1.083       .  S
C572       C1291   1.408       .  A
C572       C1293   1.402   1_545  A
C573        C574   1.385       .  A
C573       C1292   1.402       .  A
C573       F1300   1.358       .  S
C574        C575   1.409       .  A
C574        H579   1.084       .  S
C575        C576   1.400       .  A
C576        F577   1.357       .  S
H578       C1291   1.083       .  S
F580       C1293   1.358       .  S
C581        C582   1.404       .  A
C581        C586   1.387       .  A
C581        H588   1.084       .  S
C582        C583   1.401       .  A
C583        C584   1.388       .  A
C583        F590   1.355       .  S
C584        C585   1.404       .  A
C584        H589   1.084       .  S
C585        C887   1.455   1_545  S
C585        C586   1.403       .  A
C586        F587   1.358       .  S
C591        C592   1.406       .  A
C591        C596   1.388       .  A
C591        H598   1.084       .  S
C592        C593   1.402       .  A
C593        C594   1.387       .  A
C593        F600   1.358       .  S
C594        C595   1.407       .  A
C594        H599   1.084       .  S
C595        C596   1.400       .  A
C596        F597   1.354       .  S
C601        C602   1.399       .  A
C601        C606   1.384       .  A
C601        H608   1.084       .  S
C602        C603   1.408       .  A
C603        C604   1.395       .  A
C603        F610   1.358       .  S
C604        C605   1.401       .  A
C604        H609   1.083       .  S
C605        C863   1.464   1_545  S
C605        C606   1.409       .  A
C606        F607   1.359       .  S
C611        C612   1.402       .  A
C611        C616   1.387       .  A
C611        H618   1.084       .  S
C612        C613   1.401       .  A
C613        C614   1.388       .  A
C613        F620   1.355       .  S
C614        C615   1.403       .  A
C614        H619   1.084       .  S
C615        C616   1.402       .  A
C616        F617   1.357       .  S
C621        C622   1.403       .  A
C621        C626   1.388       .  A
C621        H628   1.084       .  S
C622        C623   1.403       .  A
C623       C1344   1.389       .  A
C623        F630   1.355       .  S
C624        C625   1.404       .  A
C624       C1343   1.389   1_545  A
C624        H629   1.084       .  S
C625       C1346   1.404   1_545  A
C626       C1345   1.404       .  A
C626        F627   1.357       .  S
C631        C632   1.399       .  A
C631        C636   1.386       .  A
C631        H638   1.084       .  S
C632        C633   1.407       .  A
C633        C634   1.388       .  A
C633        F640   1.358       .  S
C634        C635   1.399       .  A
C634        H639   1.084       .  S
C635        C636   1.411       .  A
C636        F637   1.359       .  S
C641        C642   1.399       .  A
C641        C646   1.389       .  A
C641        H648   1.084       .  S
C642        C643   1.407       .  A
C643        C644   1.386       .  A
C643        F650   1.358       .  S
C644        C645   1.398       .  A
C644        H649   1.084       .  S
C645        C646   1.408       .  A
C646        F647   1.358       .  S
C651        C652   1.398       .  A
C651        C656   1.383       .  A
C651        H658   1.084       .  S
C652        C653   1.409       .  A
C653        C654   1.391       .  A
C653        F660   1.358       .  S
C654        C655   1.400       .  A
C654        H659   1.084       .  S
C655        C656   1.405       .  A
C656        F657   1.358       .  S
C661        C662   1.397       .  A
C661        C666   1.382       .  A
C661        H668   1.084       .  S
C662        C663   1.409       .  A
C663        C664   1.390       .  A
C663        F670   1.358       .  S
C664        C665   1.399       .  A
C664        H669   1.084   1_545  S
C665        C666   1.408       .  A
C666        F667   1.359       .  S
C671        C672   1.398       .  A
C671        C676   1.388       .  A
C671        H678   1.083       .  S
C672        C673   1.411       .  A
C673        C674   1.385       .  A
C673        F680   1.359       .  S
C674        C675   1.397       .  A
C674        H679   1.084       .  S
C675        C676   1.409       .  A
C676        F677   1.358       .  S
C681        C682   1.410       .  A
C681        C686   1.390       .  A
C681        H688   1.083       .  S
C682        C683   1.401       .  A
C683        C684   1.386       .  A
C683        F690   1.356       .  S
C684        C685   1.409       .  A
C684        H689   1.083   1_554  S
C685        C686   1.403       .  A
C686        F687   1.358       .  S
C691        C692   1.404       .  A
C691       C2136   1.385       .  A
C691        H698   1.084       .  S
C692       C2133   1.398       .  A
C693        C694   1.387       .  A
C693       C2132   1.398       .  A
C693        F700   1.354       .  S
C694        C695   1.404       .  A
C694        H699   1.084       .  S
C695        C696   1.402       .  A
C696       C2131   1.385   1_455  A
C696        F697   1.358       .  S
C701        C702   1.407       .  A
C701        C706   1.386       .  A
C701        H708   1.084       .  S
C702        C703   1.399       .  A
C703        C704   1.386       .  A
C703        F710   1.354       .  S
C704        C705   1.405       .  A
C704        H709   1.084       .  S
C705        C706   1.402       .  A
C706        F707   1.358       .  S
C711        C712   1.398       .  A
C711        C716   1.384       .  A
C711        H718   1.084       .  S
C712       C1451   1.459       .  S
C712        C713   1.408       .  A
C713        C714   1.391       .  A
C713        F720   1.357   1_545  S
C714        C715   1.399       .  A
C714        H719   1.083   1_545  S
C715        C716   1.411       .  A
C716        F717   1.359       .  S
C721       C1110   1.484       .  S
N722        C723   1.373       .  A
C723        C948   1.465       .  S
C723        N724   1.339       .  A
N724        C725   1.336       .  A
C725       C1435   1.460       .  S
C725        N726   1.354       .  A
C727       C1141   1.490       .  S
C727        N728   1.372       .  A
C727        N732   1.356       .  A
N728        C729   1.374       .  A
C729       C1218   1.470       .  S
C729        N730   1.345       .  A
N730        C731   1.348       .  A
C731       C2872   1.459   1_455  S
C731        N732   1.355       .  A
C733        N734   1.376       .  A
C733        N738   1.361       .  A
N734        C735   1.374       .  A
C735       C1146   1.467       .  S
C735        N736   1.339       .  A
N736        C737   1.338       .  A
C737       C1422   1.459       .  S
C737        N738   1.354       .  A
C739        C986   1.484       .  S
C739        N740   1.374       .  A
C739        N744   1.357       .  A
N740        C741   1.374       .  A
C741       C1002   1.468       .  S
C741        N742   1.341       .  A
N742        C743   1.344       .  A
C743       C1425   1.456       .  S
C743        N744   1.352       .  A
C745       C1255   1.484       .  S
C745        N746   1.359       .  A
C745        N750   1.376       .  A
N746        C747   1.351       .  A
C747       C1412   1.452       .  S
C747        N748   1.337       .  A
N748        C749   1.339       .  A
C749       C1056   1.464       .  S
C749        N750   1.374       .  A
C751       C1221   1.486       .  S
C751        N752   1.357       .  A
C751        N756   1.372       .  A
N752        C753   1.353       .  A
C753       C1415   1.452       .  S
C753        N754   1.344       .  A
N754        C755   1.341       .  A
C755       C1144   1.466       .  S
C755        N756   1.374       .  A
C757       C1005   1.490       .  S
C757        N758   1.361       .  A
C757        N762   1.373   1_554  A
N758        C759   1.358       .  A
C759       C1405   1.469       .  S
C759        N760   1.346   1_554  A
N760        C761   1.340       .  A
C761        C979   1.469       .  S
C761        N762   1.372       .  A
C763       C1039   1.484       .  S
C763        N764   1.358       .  A
C763        N768   1.375       .  A
N764        C765   1.352       .  A
C765       C1402   1.468       .  S
C765        N766   1.340       .  A
N766        C767   1.343       .  A
C767       C1164   1.468       .  S
C767        N768   1.374       .  A
C769       C1058   1.485       .  S
C769        N770   1.360       .  A
C769        N774   1.377       .  A
N770       C2211   1.352       .  A
C771       C1392   1.458       .  S
C771       N2210   1.353   1_455  A
C771        N772   1.336       .  A
N772       C2213   1.338   1_455  A
C773       C2689   1.468       .  S
C773       N2212   1.338       .  A
C773        N774   1.375       .  A
C775        N776   1.374       .  A
C775        N780   1.358       .  A
N776        C777   1.374       .  A
C777       C1195   1.468       .  S
C777        N778   1.341       .  A
N778        C779   1.344       .  A
C779       C1395   1.458       .  S
C779        N780   1.355       .  A
C781       C1166   1.486       .  S
C781        N782   1.356       .  A
C781        N786   1.375       .  A
N782        C783   1.353       .  A
C783       C1382   1.455       .  S
C783        N784   1.341       .  A
N784        C785   1.342       .  A
C785       C1033   1.467       .  S
C785        N786   1.374       .  A
C787        N788   1.374       .  A
C787        N792   1.360       .  A
N788        C789   1.373       .  A
C789       C1087   1.462       .  S
C789        N790   1.336       .  A
N790        C791   1.338       .  A
C791       C1385   1.453       .  S
C791        N792   1.353       .  A
C793       C2420   1.489       .  S
C793        N794   1.375       .  A
C793        N798   1.358       .  A
N794        C795   1.375       .  A
C795       C1142   1.469       .  S
C795        N796   1.342       .  A
N796        C797   1.341       .  A
C797       C1372   1.455       .  S
C797        N798   1.354       .  A
C799        C949   1.487       .  S
C799        N800   1.360       .  A
C799        N804   1.375       .  A
C801       C1375   1.453       .  S
C801        N802   1.341       .  A
C803        N804   1.376       .  A
C805       C1112   1.482       .  S
C805        N806   1.372       .  A
C805        N810   1.360       .  A
N806        C807   1.372       .  A
C807       C1254   1.463       .  S
C807        N808   1.340       .  A
N808        C809   1.342       .  A
C809       C1362   1.455       .  S
C809        N810   1.353       .  A
C811       C1148   1.482       .  S
C811       N2252   1.374   1_455  A
C811       N2256   1.358   1_455  A
N812       C2251   1.374       .  A
N812        C813   1.373       .  A
C813        C983   1.465       .  S
C813        N814   1.341       .  A
N814        C815   1.340       .  A
C815       C1365   1.455       .  S
C815        N816   1.352       .  A
N816       C2251   1.358       .  A
C817       C1219   1.487       .  S
C817        N818   1.356       .  A
C817        N822   1.377       .  A
N818        C819   1.351       .  A
C819       C1352   1.456       .  S
C819        N820   1.342       .  A
N820        C821   1.343       .  A
C821       C1059   1.473       .  S
C821        N822   1.376       .  A
C823       C1250   1.492       .  S
C823        N824   1.374       .  A
C823        N828   1.362       .  A
N824        C825   1.374       .  A
C825       C1111   1.464       .  S
C825        N826   1.338       .  A
N826        C827   1.339       .  A
C827       C1355   1.458       .  S
C827        N828   1.356       .  A
C829       C1035   1.491       .  S
C829        N830   1.357       .  A
C829        N834   1.375   1_554  A
N830        C831   1.354       .  A
C831       C1345   1.458       .  S
C831        N832   1.345   1_554  A
N832        C833   1.343       .  A
C833        C981   1.474       .  S
C833        N834   1.376       .  A
C835       C1037   1.487       .  S
C835        N836   1.377       .  A
C835        N840   1.357       .  A
N836        C837   1.376       .  A
C837       C1199   1.474       .  S
C837        N838   1.344       .  A
N838        C839   1.342       .  A
C839       C1342   1.458       .  S
C839        N840   1.351       .  A
C841       C1090   1.486       .  S
C841        N842   1.357       .  A
C841        N846   1.376       .  A
N842        C843   1.350       .  A
C843       C1332   1.453       .  S
C843        N844   1.341       .  A
N844        C845   1.343       .  A
C845       C1252   1.470       .  S
C845        N846   1.376       .  A
C847       C2532   1.488       .  S
C847        N848   1.358       .  A
C847        N852   1.373       .  A
N848        C849   1.353       .  A
C849       C1335   1.451       .  S
C849        N850   1.341       .  A
N850        C851   1.341       .  A
C851       C1197   1.463       .  S
C851        N852   1.375       .  A
C853       C1165   1.494   1_655  S
C853       N2294   1.373       .  A
C853       N2298   1.356       .  A
N854       C2293   1.373       .  A
N854        C855   1.376       .  A
C855       C1093   1.475       .  S
C855        N856   1.346       .  A
N856        C857   1.349       .  A
C857       C1322   1.462       .  S
C857        N858   1.356       .  A
N858       C2293   1.356       .  A
C859       C1196   1.488       .  S
C859        N860   1.376       .  A
C859        N864   1.364       .  A
N860        C861   1.373       .  A
C861       C1040   1.472       .  S
C861        N862   1.342       .  A
N862        C863   1.339       .  A
C863        N864   1.355       .  A
C865       C1057   1.489       .  S
C865        N866   1.374       .  A
C865        N870   1.358       .  A
N866        C867   1.375       .  A
C867       C1201   1.470       .  S
C867        N868   1.341       .  A
N868        C869   1.344       .  A
C869       C1312   1.459       .  S
C869        N870   1.354       .  A
C871       C1088   1.487       .  S
C871        N872   1.376       .  A
C871        N876   1.360       .  A
N872        C873   1.374       .  A
N874        C875   1.338       .  A
C875       C1315   1.461       .  S
C877       C1143   1.487       .  S
C877        N878   1.377       .  A
C877        N882   1.359       .  A
N878        C879   1.376       .  A
C879        C951   1.474       .  S
C879        N880   1.342       .  A
N880        C881   1.340       .  A
C881       C1302   1.457       .  S
C881        N882   1.352       .  A
C883       C1145   1.488       .  S
C883        N884   1.375       .  A
C883        N888   1.357       .  A
N884        C885   1.376       .  A
C885       C1220   1.471       .  S
C885        N886   1.341       .  A
N886        C887   1.343       .  A
C887        N888   1.353       .  A
C889       C1253   1.481       .  S
C889        N890   1.376       .  A
C889        N894   1.356       .  A
N890        C891   1.374       .  A
C891       C1091   1.467       .  S
C891        N892   1.340       .  A
N892        C893   1.340       .  A
C893       C1292   1.460       .  S
C893        N894   1.349       .  A
C895       C1251   1.484       .  S
C895        N896   1.360       .  A
C895        N900   1.372       .  A
N896        C897   1.354       .  A
C897       C1295   1.461       .  S
C897        N898   1.339       .  A
N898        C899   1.337       .  A
C899       C1113   1.459       .  S
C899        N900   1.371       .  A
C901       C1200   1.485       .  S
C901        N902   1.357       .  A
C901        N906   1.374       .  A
N902        C903   1.353       .  A
C903       C1282   1.462       .  S
C903        N904   1.345       .  A
N904        C905   1.342       .  A
C905       C1089   1.471       .  S
C905        N906   1.374       .  A
C907       C1198   1.486       .  S
C907        N908   1.359       .  A
C907        N912   1.376       .  A
N908        C909   1.353       .  A
C909       C2725   1.464   1_455  S
C909        N910   1.339       .  A
N910        C911   1.341       .  A
C911       C1036   1.468       .  S
C911        N912   1.374       .  A
C913       C1034   1.484       .  S
C913        N914   1.372   1_554  A
C913        N918   1.358       .  A
N914        C915   1.372       .  A
C915        C985   1.461       .  S
C915        N916   1.338       .  A
N916        C917   1.343   1_556  A
C917       C1275   1.461       .  S
C917        N918   1.354       .  A
C919       C1003   1.485       .  S
C919        N920   1.375       .  A
C919        N924   1.359       .  A
N920        C921   1.374       .  A
C921       C1167   1.464       .  S
C921        N922   1.340       .  A
N922        C923   1.338       .  A
C923       C1272   1.464       .  S
C923        N924   1.353       .  A
C925        C982   1.483       .  S
C925        N926   1.357       .  A
C925        N930   1.375       .  A
N926        C927   1.351       .  A
C927       C1262   1.460       .  S
C927        N928   1.337       .  A
N928        C929   1.339       .  A
C929       C1147   1.462       .  S
C929        N930   1.374       .  A
C931        C984   1.486       .  S
C931        N932   1.359       .  A
C931        N936   1.373       .  A
N932       C2373   1.354       .  A
C933       C1265   1.462       .  S
C933       N2372   1.354   1_455  A
C933        N934   1.342       .  A
N934       C2375   1.338   1_455  A
C935       C2478   1.465       .  S
C935       N2374   1.338       .  A
C935        N936   1.373       .  A
O937        C948   1.304       .  A
O937       Eu973   2.514       .  S
O938        C949   1.294       .  A
O938       Eu972   2.488       .  S
O939        C950   1.292       .  A
O939       Eu945   2.482       .  S
O940        C951   1.306       .  A
O940       Eu945   2.528       .  S
O941        C951   1.282       .  A
O941       Eu975   2.418       .  S
O942        C950   1.298       .  A
O942       Eu974   2.484       .  S
O943        C949   1.298       .  A
O943       Eu945   2.486       .  S
O944        C948   1.281       .  A
O944       Eu945   2.405       .  S
Eu945       O955   2.364       .  S
Eu945       O947   2.369       .  S
Eu945       O946   2.326       .  S
Eu945       O953   2.361       .  S
O946       Eu975   2.372       .  S
O946       Eu972   2.345       .  S
O947       Eu973   2.326       .  S
O947       Eu974   2.338       .  S
H952        O953   0.963       .  S
O953       Eu974   2.322       .  S
O953       Eu972   2.383       .  S
H954        O955   0.965       .  S
O955       Eu973   2.362       .  S
O955       Eu975   2.358       .  S
O956        C979   1.309       .  A
O956       Eu972   2.544       .  S
O957        C980   1.292       .  A
O957       Eu973   2.480       .  S
O958        C981   1.310       .  A
O958       Eu974   2.550       .  S
O959        C982   1.289       .  A
O959       Eu975   2.466       .  S
O960        C983   1.305       .  A
O960       Eu975   2.522       .  S
O961        C984   1.294       .  A
O961       Eu974   2.487       .  S
O962        C985   1.309       .  A
O962       Eu976   2.543       .  S
O963        C986   1.292       .  A
O963       Eu976   2.477       .  S
O964        C985   1.276       .  A
O964       Eu974   2.375       .  S
O965        C986   1.299       .  A
O965       Eu975   2.486       .  S
O966        C981   1.279       .  A
O966       Eu972   2.396       .  S
O967        C984   1.297       .  A
O967       Eu973   2.482       .  S
O968        C983   1.280       .  A
O968       Eu973   2.400       .  S
O969        C982   1.299       .  A
O969       Eu972   2.489       .  S
O970        C979   1.278       .  A
O970       Eu976   2.389       .  S
O971        C980   1.298       .  A
O971       Eu976   2.486       .  S
Eu972       O990   2.329       .  S
Eu972       O978   2.350       .  S
Eu973       O977   2.366       .  S
Eu973       O988   2.348       .  S
Eu974       O988   2.379       .  S
Eu974       O978   2.350       .  S
Eu975       O977   2.328       .  S
Eu975       O990   2.363       .  S
Eu976       O977   2.344       .  S
Eu976       O988   2.317       .  S
Eu976       O990   2.382       .  S
Eu976       O978   2.352       .  S
C980       C2233   1.489       .  S
H987        O988   0.961       .  S
H989        O990   0.962       .  S
O991       C1002   1.310       .  A
O991      Eu1027   2.547       .  S
O992       C1003   1.292       .  A
O992      Eu1026   2.481   1_565  S
O993       C1004   1.311   1_565  A
O993       Eu999   2.550       .  S
O994       C1005   1.295   1_556  A
O994      Eu2439   2.491       .  S
O995       C1005   1.298       .  A
O995      Eu1029   2.493       .  S
O996      Eu1028   2.383       .  S
O997       C1003   1.297       .  A
O997       Eu999   2.483   1_554  S
O998       C1002   1.278       .  A
O998      Eu2439   2.385       .  S
Eu999      O2434   2.491   1_455  S
Eu999      O2438   2.386   1_455  S
Eu999      O2449   2.381   1_456  S
Eu999      O1001   2.346       .  S
Eu999      O1000   2.340   1_556  S
Eu999      O1007   2.328   1_556  S
O1000     Eu2469   2.327   1_455  S
O1000     Eu1026   2.367   1_565  S
O1001     Eu2467   2.349   1_455  S
H1006      O1007   0.963   1_556  S
O1007     Eu1026   2.361   1_565  S
H1008      O1009   0.963   1_556  S
O1009     Eu2439   2.380   1_554  S
O1009     Eu1027   2.322   1_554  S
O1009     Eu1029   2.362       .  S
O1010      C1033   1.306       .  A
O1011      C1034   1.293   1_556  A
O1012      C1035   1.294   1_556  A
O1012     Eu1028   2.488       .  S
O1013      C2476   1.305       .  A
O1013     Eu1029   2.518       .  S
O1014      C1037   1.290       .  A
O1014     Eu1029   2.466       .  S
O1015      C1038   1.310   1_455  A
O1015     Eu1028   2.544       .  S
O1016      C1039   1.290       .  A
O1016     Eu1030   2.469       .  S
O1017     Eu2470   2.502       .  S
O1018      C1039   1.298       .  A
O1018     Eu1028   2.485   1_554  S
O1019      C1040   1.283       .  A
O1019     Eu1029   2.425       .  S
O1020      C1035   1.300       .  A
O1021      C2478   1.278       .  A
O1022      C1037   1.300       .  A
O1022     Eu1027   2.493   1_554  S
O1023      C1036   1.281       .  A
O1023     Eu1026   2.410   1_565  S
O1024      C1033   1.281       .  A
O1024     Eu1030   2.405       .  S
O1025      C1034   1.297       .  A
O1025     Eu2470   2.481       .  S
Eu1026     O1044   2.367   1_545  S
Eu1027     O2441   2.349       .  S
Eu1027     O1031   2.339   1_556  S
Eu1027     O1762   2.385   1_566  S
Eu1028     O1042   2.323   1_556  S
Eu1028     O1032   2.339   1_556  S
Eu1029     O2440   2.327       .  S
Eu1029     O1031   2.369       .  S
Eu1029     O2484   2.362       .  S
Eu1030     O2457   2.502   1_455  S
Eu1030     O2465   2.481   1_455  S
Eu1030     O1751   2.327   1_455  S
Eu1030     O1042   2.351       .  S
Eu1030     O1032   2.364       .  S
O1031     Eu1750   2.327   1_565  S
C1036      O2453   1.305       .  A
C1038      C2375   1.465       .  S
C1038      O2461   1.278       .  A
H1041      O1042   0.962   1_556  S
O1042     Eu1747   2.384   1_454  S
H1043      O1044   0.963       .  S
O1044     Eu2469   2.362   1_455  S
O1045      C1056   1.305       .  A
O1045     Eu1081   2.519       .  S
O1046      C1057   1.293       .  A
O1046     Eu1080   2.488       .  S
O1047      C1058   1.290       .  A
O1047     Eu1053   2.471       .  S
O1048      C1059   1.307       .  A
O1048     Eu1053   2.535       .  S
O1049      C1059   1.281       .  A
O1049     Eu1083   2.409       .  S
O1050      C1058   1.299       .  A
O1050     Eu1082   2.490       .  S
O1051      C1057   1.298       .  A
O1051     Eu1053   2.488       .  S
O1052      C1056   1.280       .  A
O1052     Eu1053   2.401       .  S
Eu1053     O1063   2.363       .  S
Eu1053     O1055   2.369       .  S
Eu1053     O1054   2.322       .  S
Eu1053     O1061   2.362       .  S
O1054     Eu1083   2.369       .  S
O1054     Eu1080   2.343       .  S
O1055     Eu1081   2.321       .  S
O1055     Eu1082   2.338       .  S
H1060      O1061   0.962       .  S
O1061     Eu1082   2.327       .  S
O1061     Eu1080   2.379       .  S
H1062      O1063   0.964       .  S
O1063     Eu1081   2.366       .  S
O1063     Eu1083   2.362       .  S
O1064      C1087   1.309       .  A
O1064     Eu1080   2.541       .  S
O1065      C1088   1.291       .  A
O1065     Eu1081   2.476       .  S
O1066      C1089   1.310       .  A
O1066     Eu1082   2.549       .  S
O1067      C1090   1.291       .  A
O1067     Eu1083   2.477       .  S
O1068      C1091   1.306       .  A
O1068     Eu1083   2.523       .  S
O1069      C1092   1.294       .  A
O1069     Eu1082   2.492       .  S
O1070      C1093   1.311       .  A
O1070     Eu1084   2.560       .  S
O1071      C1094   1.294       .  A
O1071     Eu1084   2.491       .  S
O1072      C1093   1.278       .  A
O1072     Eu1082   2.387       .  S
O1073      C1094   1.298       .  A
O1073     Eu1083   2.487       .  S
O1074      C1089   1.279       .  A
O1074     Eu1080   2.390       .  S
O1075      C1092   1.297       .  A
O1075     Eu1081   2.483       .  S
O1076      C1091   1.281       .  A
O1076     Eu1081   2.406       .  S
O1077      C1090   1.299       .  A
O1077     Eu1080   2.487       .  S
O1078      C1087   1.276       .  A
O1078     Eu1084   2.376       .  S
O1079      C1088   1.299       .  A
O1079     Eu1084   2.489       .  S
Eu1080     O1098   2.321       .  S
Eu1080     O1086   2.345       .  S
Eu1081     O1085   2.366       .  S
Eu1081     O1096   2.363       .  S
Eu1082     O1096   2.385       .  S
Eu1082     O1086   2.344       .  S
Eu1083     O1085   2.329       .  S
Eu1083     O1098   2.357       .  S
Eu1084     O1085   2.342       .  S
Eu1084     O1096   2.325       .  S
Eu1084     O1098   2.386       .  S
Eu1084     O1086   2.346       .  S
C1092      C2287   1.488       .  S
H1095      O1096   0.962       .  S
H1097      O1098   0.961       .  S
O1099      C1110   1.292       .  A
O1099     Eu1135   2.484       .  S
O1100      C1111   1.309       .  A
O1100     Eu1134   2.541       .  S
O1101      C1112   1.292       .  A
O1101     Eu1107   2.483       .  S
O1102      C1113   1.307       .  A
O1102     Eu1107   2.526       .  S
O1103      C1113   1.277       .  A
O1103     Eu1137   2.380       .  S
O1104      C1112   1.296       .  A
O1104     Eu1136   2.475       .  S
O1105      C1111   1.277       .  A
O1105     Eu1107   2.381       .  S
O1106      C1110   1.296       .  A
O1106     Eu1107   2.477       .  S
Eu1107     O1117   2.328       .  S
Eu1107     O1109   2.333       .  S
Eu1107     O1108   2.352       .  S
Eu1107     O1115   2.380       .  S
O1108     Eu1137   2.349       .  S
O1108     Eu1134   2.348       .  S
O1109     Eu1135   2.367       .  S
O1109     Eu1136   2.318       .  S
H1114      O1115   0.963       .  S
O1115     Eu1136   2.353       .  S
O1115     Eu1134   2.327       .  S
H1116      O1117   0.961       .  S
O1117     Eu1135   2.357       .  S
O1117     Eu1137   2.384       .  S
O1118      C1141   1.294       .  A
O1118     Eu1134   2.493       .  S
O1119      C1142   1.307       .  A
O1119     Eu1135   2.532       .  S
O1120      C1143   1.291       .  A
O1120     Eu1136   2.479       .  S
O1121      C1144   1.310       .  A
O1121     Eu1137   2.549       .  S
O1122      C1145   1.293       .  A
O1122     Eu1137   2.485       .  S
O1123      C1146   1.306       .  A
O1123     Eu1136   2.521       .  S
O1124      C1147   1.306       .  A
O1124     Eu1138   2.522       .  S
O1125      C1148   1.290       .  A
O1125     Eu1138   2.471       .  S
O1126      C1147   1.278       .  A
O1126     Eu1136   2.390       .  S
O1127      C1148   1.297       .  A
O1127     Eu1137   2.478       .  S
O1128      C1143   1.298       .  A
O1128     Eu1134   2.484       .  S
O1129      C1146   1.280       .  A
O1129     Eu1135   2.404       .  S
O1130      C1145   1.299       .  A
O1130     Eu1135   2.490       .  S
O1131      C1144   1.277       .  A
O1131     Eu1134   2.378       .  S
O1132      C1141   1.298       .  A
O1132     Eu1138   2.487       .  S
O1133      C1142   1.280       .  A
O1133     Eu1138   2.401       .  S
Eu1134     O1152   2.375       .  S
Eu1134     O1140   2.336       .  S
Eu1135     O1139   2.328       .  S
Eu1135     O1150   2.361       .  S
Eu1136     O1150   2.362       .  S
Eu1136     O1140   2.369       .  S
Eu1137     O1139   2.345       .  S
Eu1137     O1152   2.319       .  S
Eu1138     O1139   2.369       .  S
Eu1138     O1150   2.361       .  S
Eu1138     O1152   2.353       .  S
Eu1138     O1140   2.323       .  S
H1149      O1150   0.964       .  S
H1151      O1152   0.962       .  S
O1153      C1164   1.303       .  A
O1153     Eu1189   2.510       .  S
O1154      C1165   1.294       .  A
O1154     Eu1188   2.491       .  S
O1155      C1166   1.289       .  A
O1155     Eu1161   2.465       .  S
O1156      C1167   1.303       .  A
O1156     Eu1161   2.506       .  S
O1157      C1167   1.281       .  A
O1157     Eu1191   2.406       .  S
O1158      C1166   1.299       .  A
O1158     Eu1190   2.492       .  S
O1159      C1165   1.300       .  A
O1159     Eu1161   2.497       .  S
O1160      C1164   1.282       .  A
O1160     Eu1161   2.414       .  S
Eu1161     O1171   2.364       .  S
Eu1161     O1163   2.365       .  S
Eu1161     O1162   2.325       .  S
Eu1161     O1169   2.356       .  S
O1162     Eu1191   2.369       .  S
O1162     Eu1188   2.339       .  S
O1163     Eu1189   2.329       .  S
O1163     Eu1190   2.335       .  S
H1168      O1169   0.964       .  S
O1169     Eu1190   2.327       .  S
O1169     Eu1188   2.382       .  S
H1170      O1171   0.964       .  S
O1171     Eu1189   2.363       .  S
O1171     Eu1191   2.361       .  S
O1172      C1195   1.309       .  A
O1172     Eu1188   2.541       .  S
O1173      C1196   1.293       .  A
O1173     Eu1189   2.487       .  S
O1174      C1197   1.309       .  A
O1174     Eu1190   2.541       .  S
O1175      C1198   1.291       .  A
O1175     Eu1191   2.478       .  S
O1176      C1199   1.307       .  A
O1176     Eu1191   2.531       .  S
O1177      C1200   1.292       .  A
O1177     Eu1190   2.479       .  S
O1178      C1201   1.310       .  A
O1178     Eu1192   2.549       .  S
O1179      C1202   1.293       .  A
O1179     Eu1192   2.481       .  S
O1180      C1201   1.278       .  A
O1180     Eu1190   2.389       .  S
O1181      C1202   1.299       .  A
O1181     Eu1191   2.488       .  S
O1182      C1197   1.276       .  A
O1182     Eu1188   2.377       .  S
O1183      C1200   1.299       .  A
O1183     Eu1189   2.487       .  S
O1184      C1199   1.282       .  A
O1184     Eu1189   2.413       .  S
O1185      C1198   1.298       .  A
O1185     Eu1188   2.483       .  S
O1186      C1195   1.278       .  A
O1186     Eu1192   2.391       .  S
O1187      C1196   1.298       .  A
O1187     Eu1192   2.487       .  S
Eu1188     O1206   2.324       .  S
Eu1188     O1194   2.352       .  S
Eu1189     O1193   2.360       .  S
Eu1189     O1204   2.359       .  S
Eu1190     O1204   2.388       .  S
Eu1190     O1194   2.350       .  S
Eu1191     O1193   2.323       .  S
Eu1191     O1206   2.362       .  S
Eu1192     O1193   2.340       .  S
Eu1192     O1204   2.331       .  S
Eu1192     O1206   2.385       .  S
Eu1192     O1194   2.350       .  S
H1203      O1204   0.963       .  S
H1205      O1206   0.962       .  S
O1207      C2658   1.309       .  A
O1208      C1219   1.289       .  A
O1208     Eu1242   2.463       .  S
O1209     Eu1215   2.555       .  S
O1210      C1221   1.293       .  A
O1210     Eu1215   2.486       .  S
O1211      C1221   1.297       .  A
O1211     Eu1245   2.482       .  S
O1212      C1220   1.278       .  A
O1212     Eu1244   2.385       .  S
O1213      C1219   1.301       .  A
O1213     Eu1215   2.500       .  S
O1214      C1218   1.279       .  A
O1214     Eu1215   2.394       .  S
Eu1215     O1225   2.380       .  S
Eu1215     O1216   2.341       .  S
O1216     Eu1245   2.323       .  S
O1216     Eu1242   2.368       .  S
O1217     Eu2683   2.350   1_455  S
O1217     Eu1244   2.349       .  S
C1218      O2647   1.309       .  A
H1222      O1223   0.962       .  S
O1223     Eu1244   2.378       .  S
H1224      O1225   0.963       .  S
O1225     Eu1963   2.330   1_455  S
O1225     Eu1245   2.360       .  S
O1226      C1249   1.306   1_455  A
O1227      C1250   1.295       .  A
O1227     Eu1243   2.499       .  S
O1228      C1251   1.293       .  A
O1228     Eu1244   2.486       .  S
O1229      C1252   1.304       .  A
O1229     Eu1245   2.517       .  S
O1230      C1253   1.289       .  A
O1230     Eu2685   2.463       .  S
O1231      C1254   1.307       .  A
O1231     Eu2684   2.532       .  S
O1232      C1255   1.290       .  A
O1232     Eu1246   2.473       .  S
O1233      C1256   1.305   1_565  A
O1233     Eu1246   2.516       .  S
O1234      C1255   1.298       .  A
O1234     Eu2684   2.484       .  S
O1235     Eu2685   2.407       .  S
O1236      C1251   1.297       .  A
O1237      C1254   1.278       .  A
O1237     Eu1243   2.388       .  S
O1238      C1253   1.299       .  A
O1239      C1252   1.281       .  A
O1239     Eu1242   2.413       .  S
O1240      C2689   1.280       .  A
O1240     Eu1246   2.404       .  S
O1241      C1250   1.298       .  A
O1241     Eu1246   2.487       .  S
Eu1243     O2657   2.350       .  S
Eu1243     O1945   2.330   1_565  S
Eu1243     O1247   2.346   1_565  S
Eu1243     O1258   2.382       .  S
Eu1244     O2671   2.532   1_455  S
Eu1244     O2674   2.484   1_455  S
Eu1244     O2698   2.327   1_455  S
Eu1244     O1248   2.334       .  S
Eu1245     O2670   2.465   1_455  S
Eu1245     O2675   2.407   1_455  S
Eu1245     O1967   2.376   1_455  S
Eu1246     O1247   2.330   1_565  S
Eu1246     O1258   2.355       .  S
Eu1246     O2700   2.365       .  S
Eu1246     O2688   2.367       .  S
O1247     Eu1965   2.377       .  S
O1248     Eu2686   2.367   1_455  S
C1249      C2213   1.467       .  S
C1249      O2680   1.280       .  A
H1257      O1258   0.962       .  S
O1258     Eu2684   2.328       .  S
H1259      O1260   0.963       .  S
O1260     Eu2686   2.365   1_455  S
C1261      C1262   1.409       .  A
C1261      C1266   1.386       .  A
C1261      H1268   1.083       .  S
C1262      C1263   1.399       .  A
C1263      C1264   1.383       .  A
C1263      F1270   1.357       .  S
C1264      C1265   1.409       .  A
C1264      H1269   1.083       .  S
C1265      C1266   1.401       .  A
C1266      F1267   1.358       .  S
C1271      C1272   1.410       .  A
C1271      C1276   1.387   1_455  A
C1271      H1278   1.083       .  S
C1272      C1273   1.399       .  A
C1273      C2714   1.384   1_455  A
C1273      F1280   1.355       .  S
C1274      C2713   1.384       .  A
C1274      C1275   1.408       .  A
C1274      H1279   1.084   1_554  S
C1275      C2716   1.401       .  A
C1276      C2715   1.401       .  A
C1276      F1277   1.358   1_655  S
C1281      C1282   1.406       .  A
C1281      C1286   1.386       .  A
C1281      H1288   1.084       .  S
C1282      C1283   1.404       .  A
C1283      C1284   1.388       .  A
C1283      F1290   1.358       .  S
C1284      C1285   1.408       .  A
C1284      H1289   1.083       .  S
C1285      C2349   1.464       .  S
C1285      C1286   1.400       .  A
C1286      F1287   1.355       .  S
C1291      C1296   1.385   1_545  A
C1293      C1294   1.384       .  A
C1294      C1295   1.409       .  A
C1294      H1299   1.084       .  S
C1295      C1296   1.400       .  A
C1296      F1297   1.357       .  S
C1301      C1302   1.404       .  A
C1301      C1306   1.387       .  A
C1301      H1308   1.084       .  S
C1302      C1303   1.401       .  A
C1303      C1304   1.388       .  A
C1303      F1310   1.355       .  S
C1304      C1305   1.404       .  A
C1304      H1309   1.084       .  S
C1305      C1306   1.403       .  A
C1306      F1307   1.358       .  S
C1311      C1312   1.406       .  A
C1311      C1316   1.388       .  A
C1311      H1318   1.084       .  S
C1312      C1313   1.402       .  A
C1313      C1314   1.386       .  A
C1313      F1320   1.358       .  S
C1314      C1315   1.407       .  A
C1314      H1319   1.084       .  S
C1315      C1316   1.400       .  A
C1316      F1317   1.355       .  S
C1321      C1322   1.399       .  A
C1321      C1326   1.384       .  A
C1321      H1328   1.084       .  S
C1322      C1323   1.408       .  A
C1323      C1324   1.395       .  A
C1323      F1330   1.358       .  S
C1324      C1325   1.401       .  A
C1324      H1329   1.083       .  S
C1325      C1326   1.409       .  A
C1326      F1327   1.359       .  S
C1331      C1332   1.402       .  A
C1331      C1336   1.387       .  A
C1331      H1338   1.084       .  S
C1332      C1333   1.401       .  A
C1333      C1334   1.388       .  A
C1333      F1340   1.355       .  S
C1334      C1335   1.403       .  A
C1334      H1339   1.084       .  S
C1335      C1336   1.402       .  A
C1336      F1337   1.357       .  S
C1341      C1342   1.403       .  A
C1341      C1346   1.387       .  A
C1341      H1348   1.084       .  S
C1342      C1343   1.403       .  A
C1343      F1350   1.355   1_565  S
C1344      C1345   1.404       .  A
C1344      H1349   1.084       .  S
C1346      F1347   1.357       .  S
C1351      C1352   1.399       .  A
C1351      C1356   1.385       .  A
C1351      H1358   1.084       .  S
C1352      C1353   1.408       .  A
C1353      C1354   1.388       .  A
C1353      F1360   1.358       .  S
C1354      C1355   1.399       .  A
C1354      H1359   1.084       .  S
C1355      C1356   1.411       .  A
C1356      F1357   1.359       .  S
C1361      C1362   1.399       .  A
C1361      C1366   1.389       .  A
C1361      H1368   1.084       .  S
C1362      C1363   1.407       .  A
C1363      C1364   1.386       .  A
C1363      F1370   1.358       .  S
C1364      C1365   1.398       .  A
C1364      H1369   1.084       .  S
C1365      C1366   1.409       .  A
C1366      F1367   1.358       .  S
C1371      C1372   1.398       .  A
C1371      C1376   1.383       .  A
C1371      H1378   1.084       .  S
C1372      C1373   1.409       .  A
C1373      C1374   1.391       .  A
C1373      F1380   1.358       .  S
C1374      C1375   1.400       .  A
C1374      H1379   1.084       .  S
C1375      C1376   1.405       .  A
C1376      F1377   1.358       .  S
C1381      C1382   1.397       .  A
C1381      C1386   1.382       .  A
C1381      H1388   1.084       .  S
C1382      C1383   1.409       .  A
C1383      C1384   1.390       .  A
C1383      F1390   1.358       .  S
C1384      C1385   1.399       .  A
C1384      H1389   1.084       .  S
C1385      C1386   1.408       .  A
C1386      F1387   1.359       .  S
C1391      C1392   1.398       .  A
C1391      C1396   1.388       .  A
C1391      H1398   1.083       .  S
C1392      C1393   1.411       .  A
C1393      C1394   1.385       .  A
C1393      F1400   1.359       .  S
C1394      C1395   1.397       .  A
C1394      H1399   1.084       .  S
C1395      C1396   1.409       .  A
C1396      F1397   1.358       .  S
C1401      C1402   1.410       .  A
C1401      C1406   1.390       .  A
C1401      H1408   1.083       .  S
C1402      C1403   1.401       .  A
C1403      C1404   1.386       .  A
C1403      F1410   1.357       .  S
C1404      C1405   1.409       .  A
C1404      H1409   1.083   1_554  S
C1405      C1406   1.402       .  A
C1406      F1407   1.358       .  S
C1411      C1412   1.404       .  A
C1411      C2856   1.385       .  A
C1411      H1418   1.084       .  S
C1412      C2853   1.398       .  A
C1413      C2852   1.398       .  A
C1413      C1414   1.387       .  A
C1413      F1420   1.354       .  S
C1414      C1415   1.404       .  A
C1414      H1419   1.084       .  S
C1415      C1416   1.402       .  A
C1416      C2851   1.385   1_455  A
C1416      F1417   1.358       .  S
C1421      C1422   1.407       .  A
C1421      C1426   1.386       .  A
C1421      H1428   1.084       .  S
C1422      C1423   1.399       .  A
C1423      C1424   1.386       .  A
C1423      F1430   1.354       .  S
C1424      C1425   1.405       .  A
C1424      H1429   1.084       .  S
C1425      C1426   1.402       .  A
C1426      F1427   1.358       .  S
C1431      C1432   1.398       .  A
C1431      C1436   1.384       .  A
C1431      H1438   1.084       .  S
C1432      C2171   1.459       .  S
C1432      C1433   1.408       .  A
C1433      C1434   1.391       .  A
C1433      F1440   1.357       .  S
C1434      C1435   1.399       .  A
C1434      H1439   1.083       .  S
C1435      C1436   1.411       .  A
C1436      F1437   1.359       .  S
C1441      C1830   1.484       .  S
C1441      N2162   1.375       .  A
C1441      N2166   1.362       .  A
N1442      C2161   1.375   1_545  A
N1442      C1443   1.373       .  A
C1443      C1668   1.465       .  S
C1443      N1444   1.339       .  A
N1444      C1445   1.336       .  A
C1445      C2155   1.460       .  S
C1445      N1446   1.354       .  A
N1446      C2161   1.362   1_545  A
C1447      C1861   1.490       .  S
C1447      N1448   1.372       .  A
C1447      N1452   1.356       .  A
N1448      C1449   1.374       .  A
C1449      C1938   1.471       .  S
C1449      N1450   1.345       .  A
N1450      C1451   1.348       .  A
C1451      N1452   1.355       .  A
C1453      C2390   1.487       .  S
C1453      N1454   1.376       .  A
C1453      N1458   1.361       .  A
N1454      C1455   1.374       .  A
C1455      C1866   1.467       .  S
C1455      N1456   1.339       .  A
N1456      C1457   1.338       .  A
C1457      C2142   1.460       .  S
C1457      N1458   1.354       .  A
C1459      C1706   1.484       .  S
C1459      N1460   1.373       .  A
C1459      N1464   1.357       .  A
N1460      C1461   1.374       .  A
C1461      C1722   1.468       .  S
C1461      N1462   1.341       .  A
N1462      C1463   1.344       .  A
C1463      C2145   1.457       .  S
C1463      N1464   1.352       .  A
C1465      C1975   1.483       .  S
C1465      N1466   1.359       .  A
C1465      N1470   1.376       .  A
N1466      C1467   1.351       .  A
C1467      C2132   1.451   1_655  S
C1467      N1468   1.337       .  A
N1468      C1469   1.339       .  A
C1469      C1776   1.464       .  S
C1469      N1470   1.374       .  A
C1471      C1941   1.486       .  S
C1471      N1472   1.357       .  A
C1471      N1476   1.372       .  A
N1472      C1473   1.353       .  A
C1473      C2135   1.452       .  S
C1473      N1474   1.344       .  A
N1474      C1475   1.341       .  A
C1475      C1864   1.466       .  S
C1475      N1476   1.374       .  A
C1477      C1725   1.491       .  S
C1477      N1478   1.361       .  A
C1477      N1482   1.373   1_554  A
N1478      C1479   1.358       .  A
C1479      C2125   1.470       .  S
C1479      N1480   1.346   1_554  A
N1480      C1481   1.340       .  A
C1481      C1699   1.470       .  S
C1481      N1482   1.372       .  A
C1483      C1759   1.484       .  S
C1483      N1484   1.359       .  A
C1483      N1488   1.375       .  A
N1484      C1485   1.352       .  A
C1485      C2122   1.468       .  S
C1485      N1486   1.340       .  A
N1486      C1487   1.343       .  A
C1487      C1884   1.468       .  S
C1487      N1488   1.374       .  A
C1489      C1778   1.485       .  S
C1489      N1490   1.360       .  A
C1489      N1494   1.377       .  A
C1491      C2112   1.458       .  S
C1491      N1492   1.336       .  A
C1493      N1494   1.375       .  A
C1495      C2534   1.488       .  S
C1495      N1496   1.373       .  A
C1495      N1500   1.358       .  A
N1496      C1497   1.374       .  A
C1497      C1915   1.467       .  S
C1497      N1498   1.341       .  A
N1498      C1499   1.344       .  A
C1499      C2115   1.458       .  S
C1499      N1500   1.355       .  A
C1501      C1886   1.486       .  S
C1501      N1502   1.356       .  A
C1501      N1506   1.375       .  A
N1502      C1503   1.353       .  A
C1503      C2102   1.454       .  S
C1503      N1504   1.341       .  A
N1504      C1505   1.342       .  A
C1505      C1753   1.467       .  S
C1505      N1506   1.374       .  A
C1507      C2642   1.484   1_545  S
C1507      N1508   1.374       .  A
C1507      N1512   1.360       .  A
N1508      C1509   1.373       .  A
C1509      C1807   1.462       .  S
C1509      N1510   1.336       .  A
N1510      C1511   1.338       .  A
C1511      C2105   1.453       .  S
C1511      N1512   1.353       .  A
C1513      N1514   1.375       .  A
C1513      N1518   1.358       .  A
N1514      C1515   1.375       .  A
C1515      C1862   1.469       .  S
C1515      N1516   1.342       .  A
N1516      C1517   1.341       .  A
C1517      C2092   1.455       .  S
C1517      N1518   1.354       .  A
C1519      C1669   1.487       .  S
C1519      N1520   1.360       .  A
C1519      N1524   1.375       .  A
N1520      C2241   1.352   1_545  A
C1521      C2095   1.452       .  S
C1521      N2240   1.352       .  A
C1521      N1522   1.341       .  A
N1522      C2243   1.339       .  A
C1523      C2444   1.469       .  S
C1523      N2242   1.339   1_545  A
C1523      N1524   1.376       .  A
C1525      C1832   1.483       .  S
C1525      N1526   1.372       .  A
C1525      N1530   1.360       .  A
N1526      C1527   1.372       .  A
C1527      C1974   1.463       .  S
C1527      N1528   1.340       .  A
N1528      C1529   1.342       .  A
C1529      C2082   1.454       .  S
C1529      N1530   1.353       .  A
C1531      C1868   1.483       .  S
N1532      C1533   1.373       .  A
C1533      C1703   1.465       .  S
C1533      N1534   1.341       .  A
N1534      C1535   1.340       .  A
C1535      C2085   1.455       .  S
C1535      N1536   1.352       .  A
C1537      C1939   1.487       .  S
C1537      N1538   1.355       .  A
C1537      N1542   1.378       .  A
N1538      C1539   1.351       .  A
C1539      C2072   1.456       .  S
C1539      N1540   1.342       .  A
N1540      C1541   1.342       .  A
C1541      C1779   1.473       .  S
C1541      N1542   1.376       .  A
C1543      C1970   1.491       .  S
C1543      N1544   1.374       .  A
C1543      N1548   1.361       .  A
N1544      C1545   1.374       .  A
C1545      C1831   1.464       .  S
C1545      N1546   1.338       .  A
N1546      C1547   1.339       .  A
C1547      C2075   1.458       .  S
C1547      N1548   1.356       .  A
C1549      C1755   1.490       .  S
C1549      N1550   1.357       .  A
C1549      N1554   1.375   1_554  A
N1550      C1551   1.353       .  A
C1551      C2065   1.457       .  S
C1551      N1552   1.345   1_554  A
N1552      C1553   1.343       .  A
C1553      C1701   1.474       .  S
C1553      N1554   1.376       .  A
C1555      C1757   1.486       .  S
C1555      N1556   1.376       .  A
C1555      N1560   1.357       .  A
N1556      C1557   1.376       .  A
C1557      C1919   1.473       .  S
C1557      N1558   1.344       .  A
N1558      C1559   1.342       .  A
C1559      C2062   1.458       .  S
C1559      N1560   1.351       .  A
C1561      C1810   1.486       .  S
C1561      N1562   1.357       .  A
C1561      N1566   1.376       .  A
N1562      C1563   1.351       .  A
C1563      C2052   1.453       .  S
C1563      N1564   1.341       .  A
N1564      C1565   1.343       .  A
C1565      C1972   1.470       .  S
C1565      N1566   1.376       .  A
C1567      N1568   1.358       .  A
C1567      N1572   1.373       .  A
N1568      C1569   1.353       .  A
C1569      C2055   1.452       .  S
C1569      N1570   1.341       .  A
N1570      C1571   1.341       .  A
C1571      C1917   1.463       .  S
C1571      N1572   1.375       .  A
C1573      C1885   1.494       .  S
N1574      C1575   1.376       .  A
C1575      C1813   1.475       .  S
C1575      N1576   1.347       .  A
N1576      C1577   1.349       .  A
C1577      C2042   1.462       .  S
C1577      N1578   1.356       .  A
C1579      C1916   1.488       .  S
C1579      N1580   1.376       .  A
C1579      N1584   1.364       .  A
N1580      C1581   1.373       .  A
C1581      C1760   1.472       .  S
C1581      N1582   1.342       .  A
N1582      C1583   1.340       .  A
C1583      C2765   1.464       .  S
C1583      N1584   1.355       .  A
C1585      C1777   1.489       .  S
C1585      N1586   1.374       .  A
C1585      N1590   1.357       .  A
N1586      C1587   1.375       .  A
C1587      C1921   1.471       .  S
C1587      N1588   1.342       .  A
N1588      C1589   1.345       .  A
C1589      C2032   1.458       .  S
C1589      N1590   1.354       .  A
C1591      C1808   1.486       .  S
C1591      N1592   1.376       .  A
C1591      N1596   1.360       .  A
N1592      C1593   1.374       .  A
C1593      C2696   1.467       .  S
C1593      N2314   1.340   1_545  A
N1594      C2313   1.340       .  A
N1594      C1595   1.338       .  A
C1595      C2035   1.460       .  S
C1595      N2316   1.353       .  A
N1596      C2315   1.353   1_545  A
C1597      C1863   1.488       .  S
C1597      N1598   1.377       .  A
C1597      N1602   1.359       .  A
N1598      C1599   1.376       .  A
C1599      C1671   1.475       .  S
C1599      N1600   1.342       .  A
N1600      C1601   1.341       .  A
C1601      C2022   1.457       .  S
C1601      N1602   1.352       .  A
C1603      C1865   1.489       .  S
C1603      N1604   1.375       .  A
C1603      N1608   1.357       .  A
N1604      C1605   1.376       .  A
C1605      C1940   1.471       .  S
C1605      N1606   1.341       .  A
N1606      C1607   1.344       .  A
C1607      C2745   1.455       .  S
C1607      N1608   1.353       .  A
C1609      C1973   1.481       .  S
C1609      N1610   1.376       .  A
C1609      N1614   1.356       .  A
N1610      C1611   1.374       .  A
C1611      C1811   1.467       .  S
C1611      N1612   1.340       .  A
N1612      C1613   1.340       .  A
C1613      C2012   1.460       .  S
C1613      N1614   1.349       .  A
C1615      C1971   1.486       .  S
C1615      N1616   1.359       .  A
C1615      N1620   1.372       .  A
N1616      C1617   1.355       .  A
C1617      C2015   1.462       .  S
C1617      N1618   1.341       .  A
N1618      C1619   1.338       .  A
C1619      C1833   1.460       .  S
C1619      N1620   1.371       .  A
C1621      C1920   1.484       .  S
C1621      N1622   1.357       .  A
C1621      N1626   1.374       .  A
N1622      C1623   1.352       .  A
C1623      C2002   1.462       .  S
C1623      N1624   1.346       .  A
N1624      C1625   1.342       .  A
C1625      C1809   1.470       .  S
C1625      N1626   1.374       .  A
C1627      C1918   1.486       .  S
C1627      N1628   1.359       .  A
C1627      N1632   1.376       .  A
N1628      C1629   1.353       .  A
C1629      N1630   1.339       .  A
N1630      C1631   1.341       .  A
C1631      C1756   1.468       .  S
C1631      N1632   1.374       .  A
C1633      C1754   1.484       .  S
C1633      N1634   1.372   1_554  A
C1633      N1638   1.359       .  A
N1634      C1635   1.372       .  A
C1635      C1705   1.461       .  S
C1635      N1636   1.338       .  A
N1636      C1637   1.343   1_556  A
C1637      C1995   1.462       .  S
C1637      N1638   1.354       .  A
C1639      C1723   1.485       .  S
C1639      N1640   1.375       .  A
C1639      N1644   1.359       .  A
N1640      C1641   1.374       .  A
C1641      C1887   1.465       .  S
C1641      N1642   1.341       .  A
N1642      C1643   1.338       .  A
C1643      C1992   1.464       .  S
C1643      N1644   1.353       .  A
C1645      C1702   1.482       .  S
C1645      N1646   1.357       .  A
C1645      N1650   1.375       .  A
N1646      C1647   1.351       .  A
C1647      C1982   1.460       .  S
C1647      N1648   1.337       .  A
N1648      C1649   1.339       .  A
C1649      C1867   1.462       .  S
C1649      N1650   1.374       .  A
C1651      C1704   1.486       .  S
C1651      N1652   1.359       .  A
C1651      N1656   1.373       .  A
C1653      C1985   1.462       .  S
C1653      N1654   1.342       .  A
C1655      N1656   1.373       .  A
O1657      C1668   1.304       .  A
O1657     Eu1693   2.513       .  S
O1658      C1669   1.294       .  A
O1658     Eu1692   2.488       .  S
O1659      C1670   1.292       .  A
O1659     Eu1665   2.482       .  S
O1660      C1671   1.306       .  A
O1660     Eu1665   2.529       .  S
O1661      C1671   1.282       .  A
O1661     Eu1695   2.418       .  S
O1662      C1670   1.298       .  A
O1662     Eu1694   2.484       .  S
O1663      C1669   1.298       .  A
O1663     Eu1665   2.487       .  S
O1664      C1668   1.281       .  A
O1664     Eu1665   2.405       .  S
Eu1665     O1675   2.364       .  S
Eu1665     O1667   2.369       .  S
Eu1665     O1666   2.326       .  S
Eu1665     O1673   2.362       .  S
O1666     Eu1695   2.372       .  S
O1666     Eu1692   2.346       .  S
O1667     Eu1693   2.326       .  S
O1667     Eu1694   2.338       .  S
C1670      C2173   1.487   1_545  S
H1672      O1673   0.963       .  S
O1673     Eu1694   2.323       .  S
O1673     Eu1692   2.383       .  S
H1674      O1675   0.965       .  S
O1675     Eu1693   2.362       .  S
O1675     Eu1695   2.357       .  S
O1676      C1699   1.309       .  A
O1676     Eu1692   2.545       .  S
O1677      C1700   1.291   1_655  A
O1677     Eu1693   2.480       .  S
O1678      C1701   1.310       .  A
O1678     Eu1694   2.549       .  S
O1679      C1702   1.289       .  A
O1679     Eu1695   2.466       .  S
O1680      C1703   1.305       .  A
O1680     Eu1695   2.522       .  S
O1681      C1704   1.294       .  A
O1681     Eu1694   2.488       .  S
O1682      C1705   1.309       .  A
O1682     Eu1696   2.542       .  S
O1683      C1706   1.292       .  A
O1683     Eu1696   2.477       .  S
O1684      C1705   1.276       .  A
O1684     Eu1694   2.375       .  S
O1685      C1706   1.298       .  A
O1685     Eu1695   2.485       .  S
O1686      C1701   1.279       .  A
O1686     Eu1692   2.396       .  S
O1687      C1704   1.297       .  A
O1687     Eu1693   2.482       .  S
O1688      C1703   1.280       .  A
O1688     Eu1693   2.400       .  S
O1689      C1702   1.299       .  A
O1689     Eu1692   2.489       .  S
O1690      C1699   1.278       .  A
O1690     Eu1696   2.391       .  S
O1691      C1700   1.298   1_655  A
O1691     Eu1696   2.486       .  S
Eu1692     O1710   2.330       .  S
Eu1692     O1698   2.350       .  S
Eu1693     O1697   2.366       .  S
Eu1693     O1708   2.348       .  S
Eu1694     O1708   2.379       .  S
Eu1694     O1698   2.350       .  S
Eu1695     O1697   2.328       .  S
Eu1695     O1710   2.364       .  S
Eu1696     O1697   2.344       .  S
Eu1696     O1708   2.317       .  S
Eu1696     O1710   2.381       .  S
Eu1696     O1698   2.352       .  S
H1707      O1708   0.961       .  S
H1709      O1710   0.961       .  S
O1711      C1722   1.310       .  A
O1711     Eu1747   2.546       .  S
O1712      C1723   1.292       .  A
O1712     Eu1746   2.482       .  S
O1713      C1724   1.311       .  A
O1713     Eu1719   2.550       .  S
O1714      C1725   1.295   1_556  A
O1715      C1725   1.299       .  A
O1715     Eu1749   2.494       .  S
O1716      C2444   1.277       .  A
O1716     Eu1748   2.383       .  S
O1717      C1723   1.297       .  A
O1717     Eu1719   2.482   1_554  S
O1718      C1722   1.278       .  A
Eu1719     O1721   2.346       .  S
Eu1719     O1720   2.340   1_556  S
Eu1719     O1727   2.328   1_556  S
O1720     Eu1746   2.367       .  S
O1721     Eu2468   2.351       .  S
C1724      C2243   1.469       .  S
C1724      O2436   1.277       .  A
H1726      O1727   0.963   1_556  S
O1727     Eu2468   2.386   1_554  S
O1727     Eu1746   2.361       .  S
H1728      O1729   0.963   1_556  S
O1729     Eu1747   2.323   1_554  S
O1729     Eu1749   2.362       .  S
O1730      C1753   1.306       .  A
O1730     Eu2466   2.524       .  S
O1731      C1754   1.293   1_556  A
O1731     Eu2467   2.485   1_545  S
O1732      C1755   1.293   1_556  A
O1732     Eu1748   2.486       .  S
O1733     Eu1749   2.518   1_455  S
O1734      C1757   1.290       .  A
O1734     Eu1749   2.466       .  S
O1735      C1758   1.309       .  A
O1735     Eu1748   2.543       .  S
O1736      C1759   1.290       .  A
O1736     Eu1750   2.471       .  S
O1737      C2480   1.302       .  A
O1738      C1759   1.298       .  A
O1738     Eu1748   2.484   1_554  S
O1739      C1760   1.283       .  A
O1739     Eu1749   2.426       .  S
O1740      C1755   1.300       .  A
O1740     Eu2466   2.496       .  S
O1741     Eu2467   2.386   1_545  S
O1742      C1757   1.300       .  A
O1742     Eu1747   2.492   1_554  S
O1743      C1756   1.281       .  A
O1743     Eu1746   2.409       .  S
O1744      C1753   1.281       .  A
O1744     Eu1750   2.405       .  S
O1745      C1754   1.297       .  A
Eu1746     O2450   2.525       .  S
Eu1746     O2460   2.496       .  S
Eu1746     O1764   2.367       .  S
Eu1746     O2472   2.327       .  S
Eu1747     O2451   2.484       .  S
Eu1747     O2461   2.387       .  S
Eu1747     O1751   2.339   1_556  S
Eu1748     O2441   2.351   1_545  S
Eu1748     O2447   2.386   1_546  S
Eu1748     O1762   2.323   1_556  S
Eu1748     O1752   2.338   1_556  S
Eu1749     O1751   2.369       .  S
Eu1750     O1762   2.352       .  S
Eu1750     O2484   2.364   1_545  S
Eu1750     O1752   2.363       .  S
O1752     Eu2466   2.327       .  S
C1760      O2457   1.302       .  A
H1761      O1762   0.962   1_556  S
H1763      O1764   0.963       .  S
O1764     Eu2470   2.363       .  S
O1765      C1776   1.305       .  A
O1765     Eu1801   2.519       .  S
O1766      C1777   1.293       .  A
O1766     Eu1800   2.487       .  S
O1767      C1778   1.290       .  A
O1767     Eu1773   2.471       .  S
O1768      C1779   1.307       .  A
O1768     Eu1773   2.535       .  S
O1769      C1779   1.281       .  A
O1769     Eu1803   2.408       .  S
O1770      C1778   1.299       .  A
O1770     Eu1802   2.490       .  S
O1771      C1777   1.299       .  A
O1771     Eu1773   2.489       .  S
O1772      C1776   1.280       .  A
O1772     Eu1773   2.401       .  S
Eu1773     O1783   2.363       .  S
Eu1773     O1775   2.369       .  S
Eu1773     O1774   2.321       .  S
Eu1773     O1781   2.362       .  S
O1774     Eu1803   2.369       .  S
O1774     Eu1800   2.343       .  S
O1775     Eu1801   2.320       .  S
O1775     Eu1802   2.338       .  S
H1780      O1781   0.962       .  S
O1781     Eu1802   2.328       .  S
O1781     Eu1800   2.379       .  S
H1782      O1783   0.964       .  S
O1783     Eu1801   2.366       .  S
O1783     Eu1803   2.362       .  S
O1784      C1807   1.309       .  A
O1784     Eu1800   2.541       .  S
O1785      C1808   1.291       .  A
O1785     Eu1801   2.475       .  S
O1786      C1809   1.310       .  A
O1786     Eu1802   2.547       .  S
O1787      C1810   1.291       .  A
O1787     Eu1803   2.478       .  S
O1788      C1811   1.306       .  A
O1788     Eu1803   2.522       .  S
O1789      C1812   1.294   1_655  A
O1789     Eu1802   2.493       .  S
O1790      C1813   1.311       .  A
O1790     Eu1804   2.560       .  S
O1791      C1814   1.294       .  A
O1791     Eu1804   2.492       .  S
O1792      C1813   1.278       .  A
O1792     Eu1802   2.387       .  S
O1793      C1814   1.298       .  A
O1793     Eu1803   2.487       .  S
O1794      C1809   1.279       .  A
O1794     Eu1800   2.391       .  S
O1795      C1812   1.297   1_655  A
O1795     Eu1801   2.483       .  S
O1796      C1811   1.281       .  A
O1796     Eu1801   2.405       .  S
O1797      C1810   1.299       .  A
O1797     Eu1800   2.488       .  S
O1798      C1807   1.276       .  A
O1798     Eu1804   2.375       .  S
O1799      C1808   1.298       .  A
O1799     Eu1804   2.488       .  S
Eu1800     O1818   2.321       .  S
Eu1800     O1806   2.345       .  S
Eu1801     O1805   2.366       .  S
Eu1801     O1816   2.362       .  S
Eu1802     O1816   2.384       .  S
Eu1802     O1806   2.344       .  S
Eu1803     O1805   2.329       .  S
Eu1803     O1818   2.357       .  S
Eu1804     O1805   2.342       .  S
Eu1804     O1816   2.325       .  S
Eu1804     O1818   2.386       .  S
Eu1804     O1806   2.346       .  S
C1814      C2215   1.488   1_545  S
H1815      O1816   0.962       .  S
H1817      O1818   0.961       .  S
O1819      C1830   1.292       .  A
O1819     Eu1855   2.483       .  S
O1820      C1831   1.309       .  A
O1820     Eu1854   2.540       .  S
O1821      C1832   1.293       .  A
O1821     Eu1827   2.485       .  S
O1822      C1833   1.307       .  A
O1822     Eu1827   2.529       .  S
O1823      C1833   1.277       .  A
O1823     Eu1857   2.381       .  S
O1824      C1832   1.295       .  A
O1824     Eu1856   2.474       .  S
O1825      C1831   1.277       .  A
O1825     Eu1827   2.380       .  S
O1826      C1830   1.296       .  A
O1826     Eu1827   2.478       .  S
Eu1827     O1837   2.328       .  S
Eu1827     O1829   2.334       .  S
Eu1827     O1828   2.352       .  S
Eu1827     O1835   2.380       .  S
O1828     Eu1857   2.348       .  S
O1828     Eu1854   2.349       .  S
O1829     Eu1855   2.368       .  S
O1829     Eu1856   2.318       .  S
H1834      O1835   0.963       .  S
O1835     Eu1856   2.353       .  S
O1835     Eu1854   2.326       .  S
H1836      O1837   0.961       .  S
O1837     Eu1855   2.358       .  S
O1837     Eu1857   2.383       .  S
O1838      C1861   1.294       .  A
O1838     Eu1854   2.494       .  S
O1839      C1862   1.307       .  A
O1839     Eu1855   2.534       .  S
O1840      C1863   1.291       .  A
O1840     Eu1856   2.479       .  S
O1841      C1864   1.310       .  A
O1841     Eu1857   2.549       .  S
O1842      C1865   1.293       .  A
O1842     Eu1857   2.484       .  S
O1843      C1866   1.306       .  A
O1843     Eu1856   2.521       .  S
O1844      C1867   1.306       .  A
O1844     Eu1858   2.522       .  S
O1845      C1868   1.290       .  A
O1845     Eu1858   2.471       .  S
O1846      C1867   1.278       .  A
O1846     Eu1856   2.390       .  S
O1847      C1868   1.297       .  A
O1847     Eu1857   2.478       .  S
O1848      C1863   1.298       .  A
O1848     Eu1854   2.484       .  S
O1849      C1866   1.280       .  A
O1849     Eu1855   2.403       .  S
O1850      C1865   1.299       .  A
O1850     Eu1855   2.490       .  S
O1851      C1864   1.277       .  A
O1851     Eu1854   2.377       .  S
O1852      C1861   1.298       .  A
O1852     Eu1858   2.487       .  S
O1853      C1862   1.280       .  A
O1853     Eu1858   2.401       .  S
Eu1854     O1872   2.375       .  S
Eu1854     O1860   2.337       .  S
Eu1855     O1859   2.328       .  S
Eu1855     O1870   2.361       .  S
Eu1856     O1870   2.361       .  S
Eu1856     O1860   2.369       .  S
Eu1857     O1859   2.345       .  S
Eu1857     O1872   2.319       .  S
Eu1858     O1859   2.369       .  S
Eu1858     O1870   2.361       .  S
Eu1858     O1872   2.352       .  S
Eu1858     O1860   2.324       .  S
H1869      O1870   0.964       .  S
H1871      O1872   0.962       .  S
O1873      C1884   1.303       .  A
O1873     Eu1909   2.507       .  S
O1874      C1885   1.294       .  A
O1874     Eu1908   2.491       .  S
O1875      C1886   1.289       .  A
O1875     Eu1881   2.464       .  S
O1876      C1887   1.303       .  A
O1876     Eu1881   2.505       .  S
O1877      C1887   1.281       .  A
O1877     Eu1911   2.407       .  S
O1878      C1886   1.299       .  A
O1878     Eu1910   2.493       .  S
O1879      C1885   1.300       .  A
O1879     Eu1881   2.498       .  S
O1880      C1884   1.282       .  A
O1880     Eu1881   2.415       .  S
Eu1881     O1891   2.364       .  S
Eu1881     O1883   2.365       .  S
Eu1881     O1882   2.325       .  S
Eu1881     O1889   2.355       .  S
O1882     Eu1911   2.369       .  S
O1882     Eu1908   2.339       .  S
O1883     Eu1909   2.328       .  S
O1883     Eu1910   2.335       .  S
H1888      O1889   0.963       .  S
O1889     Eu1910   2.327       .  S
O1889     Eu1908   2.382       .  S
H1890      O1891   0.964       .  S
O1891     Eu1909   2.363       .  S
O1891     Eu1911   2.361       .  S
O1892      C1915   1.308       .  A
O1892     Eu1908   2.540       .  S
O1893      C1916   1.292       .  A
O1893     Eu1909   2.485       .  S
O1894      C1917   1.309       .  A
O1894     Eu1910   2.540       .  S
O1895      C1918   1.291       .  A
O1895     Eu1911   2.478       .  S
O1896      C1919   1.307       .  A
O1896     Eu1911   2.530       .  S
O1897      C1920   1.292       .  A
O1897     Eu1910   2.479       .  S
O1898      C1921   1.311       .  A
O1898     Eu1912   2.552       .  S
O1899      C1922   1.293       .  A
O1899     Eu1912   2.482       .  S
O1900      C1921   1.278       .  A
O1900     Eu1910   2.390       .  S
O1901      C1922   1.299       .  A
O1901     Eu1911   2.489       .  S
O1902      C1917   1.276       .  A
O1902     Eu1908   2.376       .  S
O1903      C1920   1.299       .  A
O1903     Eu1909   2.486       .  S
O1904      C1919   1.282       .  A
O1904     Eu1909   2.413       .  S
O1905      C1918   1.297       .  A
O1905     Eu1908   2.482       .  S
O1906      C1915   1.278       .  A
O1906     Eu1912   2.391       .  S
O1907      C1916   1.298       .  A
O1907     Eu1912   2.488       .  S
Eu1908     O1926   2.323       .  S
Eu1908     O1914   2.352       .  S
Eu1909     O1913   2.359       .  S
Eu1909     O1924   2.359       .  S
Eu1910     O1924   2.388       .  S
Eu1910     O1914   2.350       .  S
Eu1911     O1913   2.324       .  S
Eu1911     O1926   2.362       .  S
Eu1912     O1913   2.341       .  S
Eu1912     O1924   2.331       .  S
Eu1912     O1926   2.385       .  S
Eu1912     O1914   2.350       .  S
C1922      C2227   1.484       .  S
H1923      O1924   0.963       .  S
H1925      O1926   0.962       .  S
O1927     Eu2683   2.544   1_445  S
O1928      C1939   1.289       .  A
O1928     Eu1962   2.462   1_545  S
O1929      C2660   1.311       .  A
O1929     Eu1935   2.554   1_565  S
O1930      C1941   1.293       .  A
O1930     Eu1935   2.486       .  S
O1931      C1941   1.297       .  A
O1931     Eu1965   2.482       .  S
O1932      C1940   1.278       .  A
O1932     Eu1964   2.385       .  S
O1933      C1939   1.302       .  A
O1933     Eu1935   2.500       .  S
O1934      C1938   1.279       .  A
O1934     Eu1935   2.394       .  S
Eu1935     O1945   2.379       .  S
Eu1935     O2657   2.346   1_545  S
Eu1935     O1936   2.341       .  S
Eu1935     O2663   2.320   1_545  S
O1936     Eu1965   2.323       .  S
O1936     Eu1962   2.368   1_545  S
O1937     Eu2655   2.346       .  S
O1937     Eu1964   2.348       .  S
C1940      O2649   1.311       .  A
H1942      O1943   0.962       .  S
O1943     Eu2655   2.321       .  S
O1943     Eu1964   2.378       .  S
O1943     Eu2682   2.361       .  S
H1944      O1945   0.963       .  S
O1945     Eu1965   2.359       .  S
O1946      C1969   1.306       .  A
O1946     Eu2682   2.522       .  S
O1947      C1970   1.295       .  A
O1947     Eu1963   2.498       .  S
O1948      C1971   1.294       .  A
O1948     Eu1964   2.487       .  S
O1949      C1972   1.304       .  A
O1949     Eu1965   2.516       .  S
O1950      C1973   1.289       .  A
O1951      C1974   1.307       .  A
O1952      C1975   1.290       .  A
O1952     Eu1966   2.471       .  S
O1953      C1976   1.304       .  A
O1953     Eu1966   2.514       .  S
O1954      C1975   1.298       .  A
O1955      C2696   1.280       .  A
O1956      C1971   1.297       .  A
O1956     Eu2682   2.483       .  S
O1957      C1974   1.278       .  A
O1957     Eu1963   2.388       .  S
O1958      C1973   1.298       .  A
O1958     Eu2683   2.483   1_545  S
O1959      C1972   1.281       .  A
O1959     Eu1962   2.413   1_545  S
O1960     Eu1966   2.404       .  S
O1961      C1970   1.298       .  A
O1961     Eu1966   2.486       .  S
Eu1962     O2666   2.522       .  S
Eu1962     O2676   2.481       .  S
Eu1962     O2663   2.360       .  S
Eu1962     O2700   2.359       .  S
Eu1962     O2688   2.321       .  S
Eu1963     O2647   2.543   1_655  S
Eu1963     O2678   2.482       .  S
Eu1963     O1967   2.345       .  S
Eu1963     O1978   2.382       .  S
Eu1964     O1968   2.334       .  S
Eu1965     O2700   2.361   1_545  S
Eu1966     O1967   2.328       .  S
Eu1966     O1978   2.354       .  S
O1968     Eu2682   2.321       .  S
C1976      C2313   1.467       .  S
C1976      O2675   1.280       .  A
H1977      O1978   0.962       .  S
H1979      O1980   0.963       .  S
O1980     Eu2682   2.360       .  S
O1980     Eu2685   2.362       .  S
C1981      C1982   1.409       .  A
C1981      C1986   1.386       .  A
C1981      H1988   1.083       .  S
C1982      C1983   1.399       .  A
C1983      C1984   1.383       .  A
C1983      F1990   1.357       .  S
C1984      C1985   1.409       .  A
C1984      H1989   1.083       .  S
C1985      C1986   1.401       .  A
C1986      F1987   1.358       .  S
C1991      C1992   1.410       .  A
C1991      C1996   1.387       .  A
C1991      H1998   1.083       .  S
C1992      C1993   1.399       .  A
C1993      F2000   1.355       .  S
C1994      C1995   1.408       .  A
C1994      H1999   1.084   1_554  S
C1996      F1997   1.358       .  S
C2001      C2002   1.406       .  A
C2001      C2006   1.386       .  A
C2001      H2008   1.084       .  S
C2002      C2003   1.404       .  A
C2003      C2004   1.388       .  A
C2003      F2010   1.358       .  S
C2004      C2005   1.408       .  A
C2004      H2009   1.084       .  S
C2005      C2006   1.401       .  A
C2006      F2007   1.355   1_655  S
C2011      C2732   1.407       .  A
C2011      C2016   1.385       .  A
C2011      H2738   1.083       .  S
C2012      C2731   1.408       .  A
C2012      C2733   1.402   1_545  A
C2013      C2732   1.402       .  A
C2013      C2014   1.386       .  A
C2013      F2740   1.357       .  S
C2014      C2015   1.409       .  A
C2014      H2019   1.084       .  S
C2015      C2016   1.401       .  A
C2016      F2017   1.357       .  S
H2018      C2731   1.083       .  S
F2020      C2733   1.358       .  S
C2021      C2022   1.404       .  A
C2021      C2026   1.387       .  A
C2021      H2028   1.084       .  S
C2022      C2023   1.401       .  A
C2023      C2024   1.388       .  A
C2023      F2030   1.355       .  S
C2024      C2025   1.404       .  A
C2024      H2029   1.084       .  S
C2025      C2327   1.455   1_545  S
C2025      C2026   1.403       .  A
C2026      F2027   1.358       .  S
C2031      C2032   1.406       .  A
C2031      C2036   1.388       .  A
C2031      H2038   1.084       .  S
C2032      C2033   1.402       .  A
C2033      C2034   1.386       .  A
C2033      F2040   1.358       .  S
C2034      C2035   1.406       .  A
C2034      H2039   1.084       .  S
C2035      C2036   1.400       .  A
C2036      F2037   1.354       .  S
C2041      C2042   1.399       .  A
C2041      C2046   1.384       .  A
C2041      H2048   1.084       .  S
C2042      C2043   1.408       .  A
C2043      C2044   1.395       .  A
C2043      F2050   1.358       .  S
C2044      C2045   1.401       .  A
C2044      H2049   1.083       .  S
C2045      C2303   1.464   1_545  S
C2045      C2046   1.409       .  A
C2046      F2047   1.359       .  S
C2051      C2052   1.402       .  A
C2051      C2056   1.387       .  A
C2051      H2058   1.084       .  S
C2052      C2053   1.401       .  A
C2053      C2054   1.388       .  A
C2053      F2060   1.355       .  S
C2054      C2055   1.403       .  A
C2054      H2059   1.084       .  S
C2055      C2056   1.402       .  A
C2056      F2057   1.357       .  S
C2061      C2062   1.403       .  A
C2061      C2066   1.388       .  A
C2061      H2068   1.084       .  S
C2062      C2063   1.403       .  A
C2063      C2784   1.389       .  A
C2063      F2070   1.355       .  S
C2064      C2783   1.389   1_545  A
C2064      C2065   1.404       .  A
C2064      H2069   1.084       .  S
C2065      C2786   1.404   1_545  A
C2066      C2785   1.404       .  A
C2066      F2067   1.357       .  S
C2071      C2072   1.399       .  A
C2071      C2076   1.386       .  A
C2071      H2078   1.084       .  S
C2072      C2073   1.407       .  A
C2073      C2074   1.388       .  A
C2073      F2080   1.358       .  S
C2074      C2075   1.399       .  A
C2074      H2079   1.083       .  S
C2075      C2076   1.411       .  A
C2076      F2077   1.359       .  S
C2081      C2082   1.399       .  A
C2081      C2086   1.389       .  A
C2081      H2088   1.084       .  S
C2082      C2083   1.407       .  A
C2083      C2084   1.386       .  A
C2083      F2090   1.358       .  S
C2084      C2085   1.398       .  A
C2084      H2089   1.084   1_655  S
C2085      C2086   1.408       .  A
C2086      F2087   1.358       .  S
C2091      C2092   1.398       .  A
C2091      C2096   1.384       .  A
C2091      H2098   1.084       .  S
C2092      C2093   1.409       .  A
C2093      C2094   1.391       .  A
C2093      F2100   1.358       .  S
C2094      C2095   1.400       .  A
C2094      H2099   1.084       .  S
C2095      C2096   1.405       .  A
C2096      F2097   1.358       .  S
C2101      C2102   1.397       .  A
C2101      C2106   1.382       .  A
C2101      H2108   1.084       .  S
C2102      C2103   1.409       .  A
C2103      C2104   1.390       .  A
C2103      F2110   1.358       .  S
C2104      C2105   1.399       .  A
C2104      H2109   1.084   1_545  S
C2105      C2106   1.408       .  A
C2106      F2107   1.359       .  S
C2111      C2112   1.398       .  A
C2111      C2116   1.388       .  A
C2111      H2118   1.083       .  S
C2112      C2113   1.412       .  A
C2113      C2114   1.385       .  A
C2113      F2120   1.359       .  S
C2114      C2115   1.397       .  A
C2114      H2119   1.084       .  S
C2115      C2116   1.409       .  A
C2116      F2117   1.358       .  S
C2121      C2122   1.410       .  A
C2121      C2126   1.390       .  A
C2121      H2128   1.083       .  S
C2122      C2123   1.401       .  A
C2123      C2124   1.386       .  A
C2123      F2130   1.356       .  S
C2124      C2125   1.409       .  A
C2124      H2129   1.083   1_554  S
C2125      C2126   1.403       .  A
C2126      F2127   1.358       .  S
C2131      C2132   1.404   1_655  A
C2131      H2138   1.084       .  S
C2133      C2134   1.387       .  A
C2133      F2140   1.354       .  S
C2134      C2135   1.404       .  A
C2134      H2139   1.084       .  S
C2135      C2136   1.402       .  A
C2136      F2137   1.358       .  S
C2141      C2142   1.407       .  A
C2141      C2146   1.386       .  A
C2141      H2148   1.084       .  S
C2142      C2143   1.399       .  A
C2143      C2144   1.386       .  A
C2143      F2150   1.354       .  S
C2144      C2145   1.405       .  A
C2144      H2149   1.084       .  S
C2145      C2146   1.402       .  A
C2146      F2147   1.358       .  S
C2151      C2152   1.398       .  A
C2151      C2156   1.384       .  A
C2151      H2158   1.084   1_655  S
C2152      C2153   1.408       .  A
C2153      C2154   1.391       .  A
C2153      F2160   1.357   1_545  S
C2154      C2155   1.399       .  A
C2154      H2159   1.083   1_545  S
C2155      C2156   1.411       .  A
C2156      F2157   1.359       .  S
C2161      C2550   1.484       .  S
N2162      C2163   1.373       .  A
C2163      C2388   1.465       .  S
C2163      N2164   1.339       .  A
N2164      C2165   1.336       .  A
C2165      C2875   1.460       .  S
C2165      N2166   1.354       .  A
C2167      C2581   1.490       .  S
C2167      N2168   1.372       .  A
C2167      N2172   1.356       .  A
N2168      C2169   1.374       .  A
C2169      C2658   1.471       .  S
C2169      N2170   1.345       .  A
N2170      C2171   1.348       .  A
C2171      N2172   1.355       .  A
C2173      N2174   1.376       .  A
C2173      N2178   1.361       .  A
N2174      C2175   1.374       .  A
C2175      C2586   1.467       .  S
C2175      N2176   1.339       .  A
N2176      C2177   1.338       .  A
C2177      C2862   1.459       .  S
C2177      N2178   1.354       .  A
C2179      C2426   1.484       .  S
C2179      N2180   1.374       .  A
C2179      N2184   1.357       .  A
N2180      C2181   1.374       .  A
C2181      C2442   1.469       .  S
C2181      N2182   1.341       .  A
N2182      C2183   1.344       .  A
C2183      C2865   1.456       .  S
C2183      N2184   1.352       .  A
C2185      C2695   1.483       .  S
C2185      N2186   1.359       .  A
C2185      N2190   1.376       .  A
N2186      C2187   1.351       .  A
C2187      C2852   1.452   1_655  S
C2187      N2188   1.337       .  A
N2188      C2189   1.339       .  A
C2189      C2496   1.464       .  S
C2189      N2190   1.374       .  A
C2191      C2661   1.486       .  S
C2191      N2192   1.357       .  A
C2191      N2196   1.372       .  A
N2192      C2193   1.353       .  A
C2193      C2855   1.452       .  S
C2193      N2194   1.344       .  A
N2194      C2195   1.341       .  A
C2195      C2584   1.466       .  S
C2195      N2196   1.374       .  A
C2197      C2445   1.491       .  S
C2197      N2198   1.361       .  A
C2197      N2202   1.373   1_554  A
N2198      C2199   1.358       .  A
C2199      C2845   1.470       .  S
C2199      N2200   1.346   1_554  A
N2200      C2201   1.340       .  A
C2201      C2419   1.469       .  S
C2201      N2202   1.372       .  A
C2203      C2479   1.484       .  S
C2203      N2204   1.358       .  A
C2203      N2208   1.375       .  A
N2204      C2205   1.352       .  A
C2205      C2842   1.468       .  S
C2205      N2206   1.340       .  A
N2206      C2207   1.343       .  A
C2207      C2604   1.468       .  S
C2207      N2208   1.374       .  A
C2209      C2498   1.485       .  S
C2209      N2210   1.360       .  A
C2209      N2214   1.377       .  A
C2211      C2832   1.458       .  S
C2211      N2212   1.336       .  A
C2213      N2214   1.375       .  A
C2215      N2216   1.373       .  A
C2215      N2220   1.358       .  A
N2216      C2217   1.374       .  A
C2217      C2635   1.468       .  S
C2217      N2218   1.341       .  A
N2218      C2219   1.344       .  A
C2219      C2835   1.458       .  S
C2219      N2220   1.355       .  A
C2221      C2606   1.486       .  S
C2221      N2222   1.356       .  A
C2221      N2226   1.375       .  A
N2222      C2223   1.352       .  A
C2223      C2822   1.454       .  S
C2223      N2224   1.341       .  A
N2224      C2225   1.342       .  A
C2225      C2473   1.468       .  S
C2225      N2226   1.374       .  A
C2227      N2228   1.374       .  A
C2227      N2232   1.360       .  A
N2228      C2229   1.373       .  A
C2229      C2527   1.462       .  S
C2229      N2230   1.336       .  A
N2230      C2231   1.338       .  A
C2231      C2825   1.453       .  S
C2231      N2232   1.353       .  A
C2233      N2234   1.375       .  A
C2233      N2238   1.358       .  A
N2234      C2235   1.375       .  A
C2235      C2582   1.468       .  S
C2235      N2236   1.342       .  A
N2236      C2237   1.341       .  A
C2237      C2812   1.455       .  S
C2237      N2238   1.354       .  A
C2239      C2389   1.487       .  S
C2239      N2240   1.360       .  A
C2239      N2244   1.375       .  A
C2241      C2815   1.452       .  S
C2241      N2242   1.341       .  A
C2243      N2244   1.376       .  A
C2245      C2552   1.482       .  S
C2245      N2246   1.372       .  A
C2245      N2250   1.360       .  A
N2246      C2247   1.372       .  A
C2247      C2694   1.463       .  S
C2247      N2248   1.340       .  A
N2248      C2249   1.342       .  A
C2249      C2802   1.455       .  S
C2249      N2250   1.353       .  A
C2251      C2588   1.482       .  S
N2252      C2253   1.373       .  A
C2253      C2423   1.465       .  S
C2253      N2254   1.341       .  A
N2254      C2255   1.340       .  A
C2255      C2805   1.455       .  S
C2255      N2256   1.352       .  A
C2257      C2659   1.486       .  S
C2257      N2258   1.356       .  A
C2257      N2262   1.377       .  A
N2258      C2259   1.351       .  A
C2259      C2792   1.456       .  S
C2259      N2260   1.342       .  A
N2260      C2261   1.342       .  A
C2261      C2499   1.473       .  S
C2261      N2262   1.376       .  A
C2263      C2690   1.492       .  S
C2263      N2264   1.374       .  A
C2263      N2268   1.362       .  A
N2264      C2265   1.374       .  A
C2265      C2551   1.464       .  S
C2265      N2266   1.338       .  A
N2266      C2267   1.339       .  A
C2267      C2795   1.458       .  S
C2267      N2268   1.356       .  A
C2269      C2475   1.491       .  S
C2269      N2270   1.357       .  A
C2269      N2274   1.375   1_554  A
N2270      C2271   1.354       .  A
C2271      C2785   1.458       .  S
C2271      N2272   1.345   1_554  A
N2272      C2273   1.343       .  A
C2273      C2421   1.474       .  S
C2273      N2274   1.376       .  A
C2275      C2477   1.486       .  S
C2275      N2276   1.377       .  A
C2275      N2280   1.357       .  A
N2276      C2277   1.376       .  A
C2277      C2639   1.474       .  S
C2277      N2278   1.344       .  A
N2278      C2279   1.342       .  A
C2279      C2782   1.458       .  S
C2279      N2280   1.351       .  A
C2281      C2530   1.486       .  S
C2281      N2282   1.357       .  A
C2281      N2286   1.376       .  A
N2282      C2283   1.350       .  A
C2283      C2772   1.453       .  S
C2283      N2284   1.341       .  A
N2284      C2285   1.344       .  A
C2285      C2692   1.470       .  S
C2285      N2286   1.375       .  A
C2287      N2288   1.358       .  A
C2287      N2292   1.373       .  A
N2288      C2289   1.353       .  A
C2289      C2775   1.452       .  S
C2289      N2290   1.341       .  A
N2290      C2291   1.341       .  A
C2291      C2637   1.463       .  S
C2291      N2292   1.375       .  A
C2293      C2605   1.494       .  S
N2294      C2295   1.376       .  A
C2295      C2533   1.475       .  S
C2295      N2296   1.347       .  A
N2296      C2297   1.349       .  A
C2297      C2762   1.462       .  S
C2297      N2298   1.356       .  A
C2299      C2636   1.488       .  S
C2299      N2300   1.376       .  A
C2299      N2304   1.364       .  A
N2300      C2301   1.373       .  A
C2301      C2480   1.472       .  S
C2301      N2302   1.342       .  A
N2302      C2303   1.340       .  A
C2303      N2304   1.355       .  A
C2305      C2497   1.489       .  S
C2305      N2306   1.374       .  A
C2305      N2310   1.357       .  A
N2306      C2307   1.375       .  A
C2307      C2641   1.471       .  S
C2307      N2308   1.341       .  A
N2308      C2309   1.345       .  A
C2309      C2752   1.459       .  S
C2309      N2310   1.354       .  A
C2311      C2528   1.487       .  S
C2311      N2312   1.376       .  A
C2311      N2316   1.360       .  A
N2312      C2313   1.374       .  A
N2314      C2315   1.338       .  A
C2315      C2755   1.460       .  S
C2317      C2583   1.488       .  S
C2317      N2318   1.377       .  A
C2317      N2322   1.359       .  A
N2318      C2319   1.376       .  A
C2319      C2391   1.474       .  S
C2319      N2320   1.342       .  A
N2320      C2321   1.341       .  A
C2321      C2742   1.457       .  S
C2321      N2322   1.352       .  A
C2323      C2585   1.489       .  S
C2323      N2324   1.375       .  A
C2323      N2328   1.357       .  A
N2324      C2325   1.376       .  A
C2325      C2660   1.471       .  S
C2325      N2326   1.341       .  A
N2326      C2327   1.343       .  A
C2327      N2328   1.353       .  A
C2329      C2693   1.480       .  S
C2329      N2330   1.376       .  A
C2329      N2334   1.357       .  A
N2330      C2331   1.374       .  A
C2331      C2531   1.468       .  S
C2331      N2332   1.341       .  A
N2332      C2333   1.339       .  A
C2333      C2732   1.461       .  S
C2333      N2334   1.349       .  A
C2335      C2691   1.485       .  S
C2335      N2336   1.359       .  A
C2335      N2340   1.372       .  A
N2336      C2337   1.354       .  A
C2337      C2735   1.461       .  S
C2337      N2338   1.340       .  A
N2338      C2339   1.337       .  A
C2339      C2553   1.459       .  S
C2339      N2340   1.372       .  A
C2341      C2640   1.485       .  S
C2341      N2342   1.357       .  A
C2341      N2346   1.374       .  A
N2342      C2343   1.352       .  A
C2343      C2722   1.462       .  S
C2343      N2344   1.346       .  A
N2344      C2345   1.342       .  A
C2345      C2529   1.471       .  S
C2345      N2346   1.374       .  A
C2347      C2638   1.486       .  S
C2347      N2348   1.359       .  A
C2347      N2352   1.376       .  A
N2348      C2349   1.353       .  A
C2349      N2350   1.339       .  A
N2350      C2351   1.341       .  A
C2351      C2476   1.468       .  S
C2351      N2352   1.374       .  A
C2353      C2474   1.484       .  S
C2353      N2354   1.372   1_554  A
C2353      N2358   1.358       .  A
N2354      C2355   1.372       .  A
C2355      C2425   1.461       .  S
C2355      N2356   1.338       .  A
N2356      C2357   1.343   1_556  A
C2357      C2715   1.461       .  S
C2357      N2358   1.354       .  A
C2359      C2443   1.485       .  S
C2359      N2360   1.375       .  A
C2359      N2364   1.359       .  A
N2360      C2361   1.374       .  A
C2361      C2607   1.464       .  S
C2361      N2362   1.340       .  A
N2362      C2363   1.338       .  A
C2363      C2712   1.464       .  S
C2363      N2364   1.353       .  A
C2365      C2422   1.482       .  S
C2365      N2366   1.357       .  A
C2365      N2370   1.375       .  A
N2366      C2367   1.351       .  A
C2367      C2702   1.460       .  S
C2367      N2368   1.337       .  A
N2368      C2369   1.338       .  A
C2369      C2587   1.462       .  S
C2369      N2370   1.374       .  A
C2371      C2424   1.486       .  S
C2371      N2372   1.359       .  A
C2371      N2376   1.373       .  A
C2373      C2705   1.462       .  S
C2373      N2374   1.342       .  A
C2375      N2376   1.373       .  A
O2377      C2388   1.304       .  A
O2377     Eu2413   2.514       .  S
O2378      C2389   1.294       .  A
O2378     Eu2412   2.489       .  S
O2379      C2390   1.292       .  A
O2379     Eu2385   2.482       .  S
O2380      C2391   1.306       .  A
O2380     Eu2385   2.528       .  S
O2381      C2391   1.282       .  A
O2381     Eu2415   2.417       .  S
O2382      C2390   1.298       .  A
O2382     Eu2414   2.484       .  S
O2383      C2389   1.298       .  A
O2383     Eu2385   2.486       .  S
O2384      C2388   1.281       .  A
O2384     Eu2385   2.405       .  S
Eu2385     O2395   2.364       .  S
Eu2385     O2387   2.369       .  S
Eu2385     O2386   2.326       .  S
Eu2385     O2393   2.362       .  S
O2386     Eu2415   2.372       .  S
O2386     Eu2412   2.345       .  S
O2387     Eu2413   2.326       .  S
O2387     Eu2414   2.338       .  S
H2392      O2393   0.963       .  S
O2393     Eu2414   2.323       .  S
O2393     Eu2412   2.383       .  S
H2394      O2395   0.965       .  S
O2395     Eu2413   2.362       .  S
O2395     Eu2415   2.357       .  S
O2396      C2419   1.309       .  A
O2396     Eu2412   2.545       .  S
O2397      C2420   1.292   1_655  A
O2397     Eu2413   2.480       .  S
O2398      C2421   1.310       .  A
O2398     Eu2414   2.549       .  S
O2399      C2422   1.289       .  A
O2399     Eu2415   2.466       .  S
O2400      C2423   1.305       .  A
O2400     Eu2415   2.522       .  S
O2401      C2424   1.294       .  A
O2401     Eu2414   2.487       .  S
O2402      C2425   1.309       .  A
O2402     Eu2416   2.542       .  S
O2403      C2426   1.292       .  A
O2403     Eu2416   2.477       .  S
O2404      C2425   1.276       .  A
O2404     Eu2414   2.375       .  S
O2405      C2426   1.298       .  A
O2405     Eu2415   2.486       .  S
O2406      C2421   1.279       .  A
O2406     Eu2412   2.396       .  S
O2407      C2424   1.297       .  A
O2407     Eu2413   2.482       .  S
O2408      C2423   1.280       .  A
O2408     Eu2413   2.400       .  S
O2409      C2422   1.299       .  A
O2409     Eu2412   2.489       .  S
O2410      C2419   1.278       .  A
O2410     Eu2416   2.390       .  S
O2411      C2420   1.298   1_655  A
O2411     Eu2416   2.486       .  S
Eu2412     O2430   2.329       .  S
Eu2412     O2418   2.350       .  S
Eu2413     O2417   2.366       .  S
Eu2413     O2428   2.348       .  S
Eu2414     O2428   2.379       .  S
Eu2414     O2418   2.350       .  S
Eu2415     O2417   2.328       .  S
Eu2415     O2430   2.363       .  S
Eu2416     O2417   2.344       .  S
Eu2416     O2428   2.318       .  S
Eu2416     O2430   2.381       .  S
Eu2416     O2418   2.352       .  S
H2427      O2428   0.961       .  S
H2429      O2430   0.961       .  S
O2431      C2442   1.310       .  A
O2431     Eu2467   2.547       .  S
O2432      C2443   1.292       .  A
O2432     Eu2466   2.481   1_565  S
O2433      C2444   1.311   1_565  A
O2433     Eu2439   2.550       .  S
O2434      C2445   1.295   1_556  A
O2435      C2445   1.299       .  A
O2435     Eu2469   2.493       .  S
O2436     Eu2468   2.383       .  S
O2437      C2443   1.297       .  A
O2437     Eu2439   2.482   1_554  S
O2438      C2442   1.278       .  A
Eu2439     O2441   2.347       .  S
Eu2439     O2440   2.340   1_556  S
Eu2439     O2447   2.328   1_556  S
O2440     Eu2466   2.367   1_565  S
H2446      O2447   0.963   1_556  S
O2447     Eu2466   2.361   1_565  S
H2448      O2449   0.963   1_556  S
O2449     Eu2467   2.323   1_554  S
O2449     Eu2469   2.362       .  S
O2450      C2473   1.306       .  A
O2451      C2474   1.293   1_556  A
O2452      C2475   1.294   1_556  A
O2452     Eu2468   2.487       .  S
O2453     Eu2469   2.518   1_455  S
O2454      C2477   1.290       .  A
O2454     Eu2469   2.466       .  S
O2455      C2478   1.310       .  A
O2455     Eu2468   2.543       .  S
O2456      C2479   1.290       .  A
O2456     Eu2470   2.470       .  S
O2458      C2479   1.298       .  A
O2458     Eu2468   2.485   1_554  S
O2459      C2480   1.283       .  A
O2459     Eu2469   2.426       .  S
O2460      C2475   1.300       .  A
O2462      C2477   1.300       .  A
O2462     Eu2467   2.492   1_554  S
O2463      C2476   1.282       .  A
O2463     Eu2466   2.410   1_565  S
O2464      C2473   1.281       .  A
O2464     Eu2470   2.405       .  S
O2465      C2474   1.297       .  A
Eu2466     O2484   2.368   1_545  S
Eu2467     O2471   2.339   1_556  S
Eu2468     O2482   2.323   1_556  S
Eu2468     O2472   2.338   1_556  S
Eu2469     O2471   2.369       .  S
Eu2470     O2482   2.351       .  S
Eu2470     O2472   2.363       .  S
H2481      O2482   0.962   1_556  S
H2483      O2484   0.964       .  S
O2485      C2496   1.305       .  A
O2485     Eu2521   2.517       .  S
O2486      C2497   1.293       .  A
O2486     Eu2520   2.487       .  S
O2487      C2498   1.290       .  A
O2487     Eu2493   2.471       .  S
O2488      C2499   1.307       .  A
O2488     Eu2493   2.534       .  S
O2489      C2499   1.281       .  A
O2489     Eu2523   2.409       .  S
O2490      C2498   1.299       .  A
O2490     Eu2522   2.490       .  S
O2491      C2497   1.299       .  A
O2491     Eu2493   2.489       .  S
O2492      C2496   1.280       .  A
O2492     Eu2493   2.402       .  S
Eu2493     O2503   2.363       .  S
Eu2493     O2495   2.369       .  S
Eu2493     O2494   2.322       .  S
Eu2493     O2501   2.362       .  S
O2494     Eu2523   2.368       .  S
O2494     Eu2520   2.342       .  S
O2495     Eu2521   2.322       .  S
O2495     Eu2522   2.338       .  S
H2500      O2501   0.962       .  S
O2501     Eu2522   2.328       .  S
O2501     Eu2520   2.380       .  S
H2502      O2503   0.965       .  S
O2503     Eu2521   2.366       .  S
O2503     Eu2523   2.363       .  S
O2504      C2527   1.309       .  A
O2504     Eu2520   2.541       .  S
O2505      C2528   1.291       .  A
O2505     Eu2521   2.475       .  S
O2506      C2529   1.310       .  A
O2506     Eu2522   2.549       .  S
O2507      C2530   1.291       .  A
O2507     Eu2523   2.475       .  S
O2508      C2531   1.305       .  A
O2508     Eu2523   2.518       .  S
O2509      C2532   1.294   1_655  A
O2509     Eu2522   2.492       .  S
O2510      C2533   1.311       .  A
O2510     Eu2524   2.559       .  S
O2511      C2534   1.294       .  A
O2511     Eu2524   2.491       .  S
O2512      C2533   1.278       .  A
O2512     Eu2522   2.387       .  S
O2513      C2534   1.298       .  A
O2513     Eu2523   2.486       .  S
O2514      C2529   1.279       .  A
O2514     Eu2520   2.390       .  S
O2515      C2532   1.298   1_655  A
O2515     Eu2521   2.484       .  S
O2516      C2531   1.281       .  A
O2516     Eu2521   2.410       .  S
O2517      C2530   1.299       .  A
O2517     Eu2520   2.488       .  S
O2518      C2527   1.276       .  A
O2518     Eu2524   2.375       .  S
O2519      C2528   1.299       .  A
O2519     Eu2524   2.489       .  S
Eu2520     O2538   2.320       .  S
Eu2520     O2526   2.345       .  S
Eu2521     O2525   2.365       .  S
Eu2521     O2536   2.363       .  S
Eu2522     O2536   2.385       .  S
Eu2522     O2526   2.344       .  S
Eu2523     O2525   2.329       .  S
Eu2523     O2538   2.356       .  S
Eu2524     O2525   2.341       .  S
Eu2524     O2536   2.325       .  S
Eu2524     O2538   2.386       .  S
Eu2524     O2526   2.346       .  S
H2535      O2536   0.962       .  S
H2537      O2538   0.961       .  S
O2539      C2550   1.292       .  A
O2539     Eu2575   2.484       .  S
O2540      C2551   1.309       .  A
O2540     Eu2574   2.541       .  S
O2541      C2552   1.293       .  A
O2541     Eu2547   2.484       .  S
O2542      C2553   1.307       .  A
O2542     Eu2547   2.527       .  S
O2543      C2553   1.277       .  A
O2543     Eu2577   2.380       .  S
O2544      C2552   1.295       .  A
O2544     Eu2576   2.474       .  S
O2545      C2551   1.277       .  A
O2545     Eu2547   2.380       .  S
O2546      C2550   1.296       .  A
O2546     Eu2547   2.477       .  S
Eu2547     O2557   2.328       .  S
Eu2547     O2549   2.333       .  S
Eu2547     O2548   2.352       .  S
Eu2547     O2555   2.380       .  S
O2548     Eu2577   2.349       .  S
O2548     Eu2574   2.348       .  S
O2549     Eu2575   2.367       .  S
O2549     Eu2576   2.318       .  S
H2554      O2555   0.963       .  S
O2555     Eu2576   2.353       .  S
O2555     Eu2574   2.326       .  S
H2556      O2557   0.961       .  S
O2557     Eu2575   2.357       .  S
O2557     Eu2577   2.384       .  S
O2558      C2581   1.294       .  A
O2558     Eu2574   2.494       .  S
O2559      C2582   1.307       .  A
O2559     Eu2575   2.533       .  S
O2560      C2583   1.291       .  A
O2560     Eu2576   2.479       .  S
O2561      C2584   1.310       .  A
O2561     Eu2577   2.548       .  S
O2562      C2585   1.293       .  A
O2562     Eu2577   2.485       .  S
O2563      C2586   1.306       .  A
O2563     Eu2576   2.522       .  S
O2564      C2587   1.306       .  A
O2564     Eu2578   2.523       .  S
O2565      C2588   1.291       .  A
O2565     Eu2578   2.472       .  S
O2566      C2587   1.278       .  A
O2566     Eu2576   2.389       .  S
O2567      C2588   1.297       .  A
O2567     Eu2577   2.478       .  S
O2568      C2583   1.298       .  A
O2568     Eu2574   2.484       .  S
O2569      C2586   1.280       .  A
O2569     Eu2575   2.403       .  S
O2570      C2585   1.299       .  A
O2570     Eu2575   2.490       .  S
O2571      C2584   1.277       .  A
O2571     Eu2574   2.378       .  S
O2572      C2581   1.298       .  A
O2572     Eu2578   2.487       .  S
O2573      C2582   1.280       .  A
O2573     Eu2578   2.401       .  S
Eu2574     O2592   2.375       .  S
Eu2574     O2580   2.337       .  S
Eu2575     O2579   2.328       .  S
Eu2575     O2590   2.361       .  S
Eu2576     O2590   2.362       .  S
Eu2576     O2580   2.369       .  S
Eu2577     O2579   2.345       .  S
Eu2577     O2592   2.319       .  S
Eu2578     O2579   2.369       .  S
Eu2578     O2590   2.361       .  S
Eu2578     O2592   2.353       .  S
Eu2578     O2580   2.323       .  S
H2589      O2590   0.964       .  S
H2591      O2592   0.962       .  S
O2593      C2604   1.303       .  A
O2593     Eu2629   2.508       .  S
O2594      C2605   1.294       .  A
O2594     Eu2628   2.491       .  S
O2595      C2606   1.289       .  A
O2595     Eu2601   2.465       .  S
O2596      C2607   1.303       .  A
O2596     Eu2601   2.506       .  S
O2597      C2607   1.281       .  A
O2597     Eu2631   2.407       .  S
O2598      C2606   1.299       .  A
O2598     Eu2630   2.492       .  S
O2599      C2605   1.300       .  A
O2599     Eu2601   2.498       .  S
O2600      C2604   1.282       .  A
O2600     Eu2601   2.415       .  S
Eu2601     O2611   2.364       .  S
Eu2601     O2603   2.365       .  S
Eu2601     O2602   2.325       .  S
Eu2601     O2609   2.355       .  S
O2602     Eu2631   2.369       .  S
O2602     Eu2628   2.339       .  S
O2603     Eu2629   2.328       .  S
O2603     Eu2630   2.335       .  S
H2608      O2609   0.963       .  S
O2609     Eu2630   2.327       .  S
O2609     Eu2628   2.382       .  S
H2610      O2611   0.964       .  S
O2611     Eu2629   2.363       .  S
O2611     Eu2631   2.361       .  S
O2612      C2635   1.309       .  A
O2612     Eu2628   2.541       .  S
O2613      C2636   1.293       .  A
O2613     Eu2629   2.486       .  S
O2614      C2637   1.309       .  A
O2614     Eu2630   2.541       .  S
O2615      C2638   1.291       .  A
O2615     Eu2631   2.478       .  S
O2616      C2639   1.307       .  A
O2616     Eu2631   2.530       .  S
O2617      C2640   1.292       .  A
O2617     Eu2630   2.479       .  S
O2618      C2641   1.311       .  A
O2618     Eu2632   2.550       .  S
O2619      C2642   1.293       .  A
O2619     Eu2632   2.481       .  S
O2620      C2641   1.278       .  A
O2620     Eu2630   2.390       .  S
O2621      C2642   1.299       .  A
O2621     Eu2631   2.488       .  S
O2622      C2637   1.276       .  A
O2622     Eu2628   2.376       .  S
O2623      C2640   1.299       .  A
O2623     Eu2629   2.487       .  S
O2624      C2639   1.282       .  A
O2624     Eu2629   2.413       .  S
O2625      C2638   1.297       .  A
O2625     Eu2628   2.482       .  S
O2626      C2635   1.278       .  A
O2626     Eu2632   2.391       .  S
O2627      C2636   1.298       .  A
O2627     Eu2632   2.487       .  S
Eu2628     O2646   2.323       .  S
Eu2628     O2634   2.352       .  S
Eu2629     O2633   2.359       .  S
Eu2629     O2644   2.359       .  S
Eu2630     O2644   2.388       .  S
Eu2630     O2634   2.349       .  S
Eu2631     O2633   2.323       .  S
Eu2631     O2646   2.362       .  S
Eu2632     O2633   2.340       .  S
Eu2632     O2644   2.331       .  S
Eu2632     O2646   2.385       .  S
Eu2632     O2634   2.350       .  S
H2643      O2644   0.963       .  S
H2645      O2646   0.962       .  S
O2648      C2659   1.289       .  A
O2648     Eu2682   2.463       .  S
O2649     Eu2655   2.554       .  S
O2650      C2661   1.293       .  A
O2650     Eu2655   2.486       .  S
O2651      C2661   1.297       .  A
O2651     Eu2685   2.482       .  S
O2652      C2660   1.278       .  A
O2652     Eu2684   2.386       .  S
O2653      C2659   1.301       .  A
O2653     Eu2655   2.499       .  S
O2654      C2658   1.279       .  A
O2654     Eu2655   2.395       .  S
Eu2655     O2665   2.380       .  S
Eu2655     O2656   2.342       .  S
O2656     Eu2685   2.324       .  S
O2656     Eu2682   2.368       .  S
O2657     Eu2684   2.348       .  S
H2662      O2663   0.962       .  S
O2663     Eu2684   2.378       .  S
H2664      O2665   0.963       .  S
O2665     Eu2685   2.359       .  S
O2666      C2689   1.306       .  A
O2667      C2690   1.295       .  A
O2667     Eu2683   2.499       .  S
O2668      C2691   1.293       .  A
O2668     Eu2684   2.487       .  S
O2669      C2692   1.304       .  A
O2669     Eu2685   2.516       .  S
O2670      C2693   1.289       .  A
O2671      C2694   1.307       .  A
O2672      C2695   1.290       .  A
O2672     Eu2686   2.472       .  S
O2673      C2696   1.304   1_565  A
O2673     Eu2686   2.514       .  S
O2674      C2695   1.298       .  A
O2676      C2691   1.297       .  A
O2677      C2694   1.278       .  A
O2677     Eu2683   2.388       .  S
O2678      C2693   1.298       .  A
O2679      C2692   1.282       .  A
O2679     Eu2682   2.413       .  S
O2680     Eu2686   2.404       .  S
O2681      C2690   1.298       .  A
O2681     Eu2686   2.487       .  S
Eu2683     O2687   2.345       .  S
Eu2683     O2698   2.382       .  S
Eu2684     O2688   2.334       .  S
Eu2686     O2687   2.330       .  S
Eu2686     O2698   2.354       .  S
H2697      O2698   0.962       .  S
H2699      O2700   0.963       .  S
C2701      C2702   1.409       .  A
C2701      C2706   1.386       .  A
C2701      H2708   1.083       .  S
C2702      C2703   1.399       .  A
C2703      C2704   1.383       .  A
C2703      F2710   1.357       .  S
C2704      C2705   1.409       .  A
C2704      H2709   1.083       .  S
C2705      C2706   1.401       .  A
C2706      F2707   1.358       .  S
C2711      C2712   1.410       .  A
C2711      C2716   1.387       .  A
C2711      H2718   1.083       .  S
C2712      C2713   1.399       .  A
C2713      F2720   1.355       .  S
C2714      C2715   1.408       .  A
C2714      H2719   1.084   1_554  S
C2716      F2717   1.358       .  S
C2721      C2722   1.406       .  A
C2721      C2726   1.386       .  A
C2721      H2728   1.084       .  S
C2722      C2723   1.404       .  A
C2723      C2724   1.388       .  A
C2723      F2730   1.358       .  S
C2724      C2725   1.408       .  A
C2724      H2729   1.083       .  S
C2725      C2726   1.400       .  A
C2726      F2727   1.355       .  S
C2731      C2736   1.385   1_545  A
C2733      C2734   1.385       .  A
C2734      C2735   1.409       .  A
C2734      H2739   1.084       .  S
C2735      C2736   1.400       .  A
C2736      F2737   1.357       .  S
C2741      C2742   1.404       .  A
C2741      C2746   1.387       .  A
C2741      H2748   1.084       .  S
C2742      C2743   1.401       .  A
C2743      C2744   1.388       .  A
C2743      F2750   1.355       .  S
C2744      C2745   1.404       .  A
C2744      H2749   1.084       .  S
C2745      C2746   1.403       .  A
C2746      F2747   1.358       .  S
C2751      C2752   1.406       .  A
C2751      C2756   1.388       .  A
C2751      H2758   1.084       .  S
C2752      C2753   1.402       .  A
C2753      C2754   1.386       .  A
C2753      F2760   1.358       .  S
C2754      C2755   1.407       .  A
C2754      H2759   1.084       .  S
C2755      C2756   1.400       .  A
C2756      F2757   1.355       .  S
C2761      C2762   1.399       .  A
C2761      C2766   1.384       .  A
C2761      H2768   1.084       .  S
C2762      C2763   1.408       .  A
C2763      C2764   1.395       .  A
C2763      F2770   1.358       .  S
C2764      C2765   1.401       .  A
C2764      H2769   1.083       .  S
C2765      C2766   1.409       .  A
C2766      F2767   1.359       .  S
C2771      C2772   1.402       .  A
C2771      C2776   1.387       .  A
C2771      H2778   1.084       .  S
C2772      C2773   1.401       .  A
C2773      C2774   1.388       .  A
C2773      F2780   1.355       .  S
C2774      C2775   1.403       .  A
C2774      H2779   1.084       .  S
C2775      C2776   1.402       .  A
C2776      F2777   1.357       .  S
C2781      C2782   1.403       .  A
C2781      C2786   1.387       .  A
C2781      H2788   1.084       .  S
C2782      C2783   1.403       .  A
C2783      F2790   1.355   1_565  S
C2784      C2785   1.404       .  A
C2784      H2789   1.084       .  S
C2786      F2787   1.357       .  S
C2791      C2792   1.398       .  A
C2791      C2796   1.385       .  A
C2791      H2798   1.084       .  S
C2792      C2793   1.408       .  A
C2793      C2794   1.388       .  A
C2793      F2800   1.358       .  S
C2794      C2795   1.399       .  A
C2794      H2799   1.083       .  S
C2795      C2796   1.411       .  A
C2796      F2797   1.359       .  S
C2801      C2802   1.399       .  A
C2801      C2806   1.389       .  A
C2801      H2808   1.084       .  S
C2802      C2803   1.407       .  A
C2803      C2804   1.386       .  A
C2803      F2810   1.358       .  S
C2804      C2805   1.398       .  A
C2804      H2809   1.084   1_655  S
C2805      C2806   1.409       .  A
C2806      F2807   1.358       .  S
C2811      C2812   1.398       .  A
C2811      C2816   1.383       .  A
C2811      H2818   1.084       .  S
C2812      C2813   1.409       .  A
C2813      C2814   1.391       .  A
C2813      F2820   1.358       .  S
C2814      C2815   1.400       .  A
C2814      H2819   1.084       .  S
C2815      C2816   1.405       .  A
C2816      F2817   1.358       .  S
C2821      C2822   1.397       .  A
C2821      C2826   1.382       .  A
C2821      H2828   1.084       .  S
C2822      C2823   1.409       .  A
C2823      C2824   1.390       .  A
C2823      F2830   1.358       .  S
C2824      C2825   1.399       .  A
C2824      H2829   1.084       .  S
C2825      C2826   1.408       .  A
C2826      F2827   1.359       .  S
C2831      C2832   1.398       .  A
C2831      C2836   1.388       .  A
C2831      H2838   1.083       .  S
C2832      C2833   1.412       .  A
C2833      C2834   1.385       .  A
C2833      F2840   1.359       .  S
C2834      C2835   1.397       .  A
C2834      H2839   1.084       .  S
C2835      C2836   1.409       .  A
C2836      F2837   1.358       .  S
C2841      C2842   1.410       .  A
C2841      C2846   1.390       .  A
C2841      H2848   1.083       .  S
C2842      C2843   1.401       .  A
C2843      C2844   1.386       .  A
C2843      F2850   1.356       .  S
C2844      C2845   1.409       .  A
C2844      H2849   1.083   1_554  S
C2845      C2846   1.403       .  A
C2846      F2847   1.358       .  S
C2851      C2852   1.404   1_655  A
C2851      H2858   1.084       .  S
C2853      C2854   1.387       .  A
C2853      F2860   1.354       .  S
C2854      C2855   1.404       .  A
C2854      H2859   1.084       .  S
C2855      C2856   1.402       .  A
C2856      F2857   1.358       .  S
C2861      C2862   1.407       .  A
C2861      C2866   1.386       .  A
C2861      H2868   1.084       .  S
C2862      C2863   1.399       .  A
C2863      C2864   1.386       .  A
C2863      F2870   1.354       .  S
C2864      C2865   1.405       .  A
C2864      H2869   1.084       .  S
C2865      C2866   1.402       .  A
C2866      F2867   1.358       .  S
C2871      C2872   1.398       .  A
C2871      C2876   1.384       .  A
C2871      H2878   1.084   1_655  S
C2872      C2873   1.408       .  A
C2873      C2874   1.391       .  A
C2873      F2880   1.357       .  S
C2874      C2875   1.399       .  A
C2874      H2879   1.083       .  S
C2875      C2876   1.411       .  A
C2876      F2877   1.359       .  S
