geometry optimzed in LAMMPS
_audit_creation_date              2020-11-30 
_audit_creation_method            'lammps2cif' 
_symmetry_space_group_name_H-M    'P1' 
_symmetry_Int_Tables_number       1 
_symmetry_cell_setting            triclinic 
loop_ 
_symmetry_equiv_pos_as_xyz 
  x,y,z 
_cell_length_a                    31.1168454 
_cell_length_b                    30.54070822315631 
_cell_length_c                    30.699037028513846 
_cell_angle_alpha                 74.90688782505175 
_cell_angle_beta                  107.3441589582113 
_cell_angle_gamma                 120.5437501018291 
loop_ 
_atom_site_label 
_atom_site_type_symbol 
_atom_site_fract_x 
_atom_site_fract_y 
_atom_site_fract_z 
_atom_site_charge 
Zr1        Zr  0.53191142  0.45793053  0.96052327     2.17500
O2          O  0.51008725  0.39039526  0.91704048    -0.51700
O3          O  0.62253867  0.48290382  0.97433958    -0.74900
O4          O  0.53366094  0.48592573  0.87867894    -0.81700
O5          O  0.50456991  0.35781300  0.06733700    -0.83500
O6          O  0.50933746  0.54845002  0.85443449    -0.79100
O7          O  0.52591079  0.37550376  0.99778177    -0.90700
O8          O  0.66716287  0.54474713  0.02125436    -0.76700
O9          O  0.57070102  0.54873729  0.95555576    -0.86200
O10         O  0.56872829  0.47553522  0.03779114    -0.85900
O11         O  0.46312536  0.47885129  0.92650183    -0.72600
O12         O  0.46327705  0.41320922  0.00198551    -0.84700
Zr13       Zr  0.47328001  0.54695472  0.04176947     2.26400
Zr14       Zr  0.50240236  0.57037371  0.92266278     2.06300
Zr15       Zr  0.50092458  0.43253455  0.07927583     2.10000
Zr16       Zr  0.60720862  0.56611688  0.03319461     1.78800
O17         O  0.42959274  0.36140984  0.11172530    -0.93600
O18         O  0.67092676  0.64277868  0.99615479    -0.41400
O19         O  0.54037106  0.52393802  0.07554994    -0.78000
O20         O  0.54184968  0.59132830  0.99986700    -0.96700
O21         O  0.43488308  0.52787418  0.96480905    -0.90000
O22         O  0.43361437  0.45575953  0.04709840    -0.92800
C23         C  0.66411275  0.51319979  0.99870085     1.00900
C24         C  0.51564669  0.34664480  0.03575725     1.13900
C25         C  0.52166891  0.51701202  0.84707189     1.04600
O26         O  0.56904304  0.64700208  0.88910909    -0.95000
O27         O  0.49262518  0.64288482  0.93013570    -0.90700
O28         O  0.48100762  0.63051899  0.00304363    -0.83900
C29         C  0.48656733  0.65679163  0.96313240     1.11300
O30         O  0.36250154  0.36386735  0.92905725    -0.97000
Zr31       Zr  0.39681562  0.43719676  0.96972074     1.88900
O32         O  0.38262726  0.52126294  0.02910222    -0.73600
O33         O  0.43427901  0.57466079  0.85980991    -0.52900
O34         O  0.34614061  0.44498317  0.89337019    -0.97500
O35         O  0.33752405  0.35936480  0.00993327    -0.54800
O36         O  0.33819155  0.46251086  0.97903244    -0.74100
C37         C  0.34135591  0.49288949  0.00315329     0.98200
O38         O  0.48204647  0.60047501  0.09397790    -0.62900
O39         O  0.56344231  0.41650263  0.14164184    -0.57700
O40         O  0.48760544  0.52746331  0.12596392    -0.94400
O41         O  0.50683821  0.46138433  0.14919092    -0.92900
O42         O  0.65089615  0.54870878  0.11061293    -0.93200
O43         O  0.64229012  0.64128437  0.07146838    -0.92000
C44         C  0.50003774  0.49637275  0.15752172     1.17100
H45         H  0.59308692  0.46281156  0.05185343     0.33000
H46         H  0.55836093  0.62791562  0.99995055     0.43900
H47         H  0.40849051  0.43988940  0.06625953     0.37400
H48         H  0.44751387  0.46836993  0.89620180     0.33900
H49         H  0.70405870  0.64740266  0.01622867     0.25700
H50         H  0.45196357  0.60436600  0.83772037     0.31600
H51         H  0.35385486  0.48144583  0.88674892     0.37500
H52         H  0.68340310  0.58055523  0.11580105     0.32000
H53         H  0.54430143  0.38069722  0.15560798     0.30800
H54         H  0.44363625  0.35681193  0.14509004     0.32500
H55         H  0.33168165  0.37076616  0.03401763     0.31500
H56         H  0.61585326  0.63356503  0.08803458     0.35500
H57         H  0.51368688  0.63297005  0.09037818     0.28200
H58         H  0.53883337  0.40301960  0.90158087     0.32500
H59         H  0.32498829  0.34879664  0.92378147     0.35300
H60         H  0.58691877  0.41538907  0.12667192     0.27900
H61         H  0.45406754  0.60971371  0.08095559     0.40800
H62         H  0.59864337  0.64026897  0.89761459     0.30800
H63         H  0.67032415  0.63253756  0.96782158     0.38500
H64         H  0.35749738  0.34106289  0.02704063     0.30300
H65         H  0.42080451  0.54444734  0.84402861     0.30400
H66         H  0.48089785  0.38904348  0.89196636     0.30600
Zr67       Zr  0.53462351  0.46039103  0.46157263     2.17500
O68         O  0.53080368  0.39918594  0.42091713    -0.51700
O69         O  0.62570264  0.48621107  0.47641637    -0.74900
O70         O  0.52857277  0.48617347  0.37781821    -0.81700
O71         O  0.50290227  0.35859393  0.56816283    -0.83500
O72         O  0.51043260  0.55293961  0.35539976    -0.79100
O73         O  0.51700303  0.37319839  0.49585990    -0.90700
O74         O  0.66949153  0.54245539  0.52873974    -0.76700
O75         O  0.57464048  0.55114549  0.45827226    -0.86200
O76         O  0.57046389  0.47639332  0.53966614    -0.85900
O77         O  0.46636270  0.48227243  0.42762982    -0.72600
O78         O  0.46498916  0.41599507  0.50190379    -0.84700
Zr79       Zr  0.47539469  0.54923613  0.54294187     2.26400
Zr80       Zr  0.50699462  0.57386096  0.42559172     2.06300
Zr81       Zr  0.50136231  0.43401491  0.57964915     2.10000
Zr82       Zr  0.61011904  0.56718616  0.53631769     1.78800
O83         O  0.42873854  0.36045701  0.60836273    -0.93600
O84         O  0.66979700  0.64044305  0.49265716    -0.41400
O85         O  0.54184266  0.52524629  0.57725206    -0.78000
O86         O  0.54575188  0.59363255  0.50322603    -0.96700
O87         O  0.43811538  0.53129153  0.46591638    -0.90000
O88         O  0.43492669  0.45822663  0.54735687    -0.92800
C89         C  0.66659618  0.51336043  0.50351608     1.00900
C90         C  0.50852690  0.34524882  0.53466787     1.13900
C91         C  0.51831753  0.51892213  0.34664742     1.04600
O92         O  0.57230971  0.64908641  0.38921359    -0.95000
O93         O  0.50339756  0.64915178  0.43398341    -0.90700
O94         O  0.48723180  0.63419470  0.50547335    -0.83900
C95         C  0.49600875  0.66201457  0.46670357     1.11300
O96         O  0.36175287  0.36273701  0.43469397    -0.97000
Zr97       Zr  0.39900852  0.44074179  0.46970792     1.88900
O98         O  0.38493768  0.52562271  0.52774226    -0.73600
O99         O  0.43581179  0.58204416  0.37085964    -0.52900
O100        O  0.35407745  0.45143256  0.39095499    -0.97500
O101        O  0.33629574  0.36746495  0.51072842    -0.54800
O102        O  0.34135735  0.46887088  0.47604229    -0.74100
C103        C  0.34417066  0.49888163  0.50031566     0.98200
O104        O  0.47937098  0.60073790  0.59436800    -0.62900
O105        O  0.56153501  0.41637250  0.64376141    -0.57700
O106        O  0.48746552  0.52833848  0.62652532    -0.94400
O107        O  0.50494690  0.46101629  0.64941311    -0.92900
O108        O  0.65716286  0.56097957  0.61484529    -0.93200
O109        O  0.65008922  0.64472313  0.57246183    -0.92000
C110        C  0.49784895  0.49581606  0.65761401     1.17100
H111        H  0.59389621  0.46254671  0.55413879     0.33000
H112        H  0.56322052  0.63014288  0.50411858     0.43900
H113        H  0.40962228  0.44238240  0.56633393     0.37400
H114        H  0.45018958  0.47202156  0.39732777     0.33900
H115        H  0.70373010  0.64915891  0.51288293     0.25700
H116        H  0.45140034  0.60987088  0.34658814     0.31600
H117        H  0.31851511  0.42399826  0.38998164     0.37500
H118        H  0.63408560  0.52774221  0.63020629     0.32000
H119        H  0.54072606  0.38175893  0.65890450     0.30800
H120        H  0.43774173  0.36038954  0.64213622     0.32500
H121        H  0.32861102  0.38179216  0.53114240     0.31500
H122        H  0.62244809  0.64319809  0.58347188     0.35500
H123        H  0.51236413  0.63238663  0.59401146     0.28200
H124        H  0.56032938  0.41833665  0.40544179     0.32500
H125        H  0.32436825  0.34800084  0.43041358     0.35300
H126        H  0.58337916  0.41162858  0.62964045     0.27900
H127        H  0.45310986  0.61199405  0.57884109     0.40800
H128        H  0.59677227  0.66859713  0.41486322     0.30800
H129        H  0.67007808  0.62653668  0.46704112     0.38500
H130        H  0.35520015  0.34958699  0.53185576     0.30300
H131        H  0.41663889  0.55043896  0.35601215     0.30400
H132        H  0.50036782  0.39133169  0.39575359     0.30600
Zr133      Zr  0.92802168  0.45274263  0.04953381     2.17500
O134        O  0.88912405  0.38487960  0.10955886    -0.51700
O135        O  0.86194870  0.47898666  0.03200040    -0.74900
O136        O  0.95416621  0.48119821  0.12542109    -0.81700
O137        O  0.85835503  0.36080600  0.95947496    -0.83500
O138        O  0.03449891  0.54702019  0.13301984    -0.79100
O139        O  0.85587455  0.37177833  0.02914734    -0.90700
O140        O  0.87359549  0.53917008  0.96883440    -0.76700
O141        O  0.97237513  0.54356077  0.03272471    -0.86200
O142        O  0.90863877  0.47128008  0.96759251    -0.85900
O143        O  0.01601992  0.47375550  0.07931623    -0.72600
O144        O  0.95528075  0.40835520  0.01830625    -0.84700
Zr145      Zr  0.07101721  0.54290221  0.94906631     2.26400
Zr146      Zr  0.06036428  0.56515948  0.06060938     2.06300
Zr147      Zr  0.93767827  0.42922453  0.93646370     2.10000
Zr148      Zr  0.95372416  0.56193590  0.95100296     1.78800
O149        O  0.94014147  0.35283960  0.92987648    -0.93600
O150        O  0.96717843  0.63934188  0.97385049    -0.41400
O151        O  0.98276780  0.52050429  0.91902750    -0.78000
O152        O  0.04242623  0.58727380  0.97864830    -0.96700
O153        O  0.08970001  0.52258916  0.03036629    -0.90000
O154        O  0.02592681  0.45166787  0.96459273    -0.92800
C155        C  0.84829253  0.50875068  0.99996864     1.00900
C156        C  0.83756711  0.34707130  0.99450859     1.13900
C157        C  0.99422686  0.51448044  0.14882372     1.04600
O158        O  0.06133130  0.64277430  0.06901152    -0.95000
O159        O  0.13902840  0.63457956  0.04015861    -0.90700
O160        O  0.14057488  0.62597311  0.96933972    -0.83900
C161        C  0.15886576  0.64990968  0.00451311     1.11300
O162        O  0.00330757  0.35489354  0.09902624    -0.97000
Zr163      Zr  0.04368181  0.43180475  0.04628780     1.88900
O164        O  0.13867261  0.51854595  0.96980100    -0.73600
O165        O  0.13327673  0.57502955  0.12329024    -0.52900
O166        O  0.09850717  0.43712195  0.12234068    -0.97500
O167        O  0.03489116  0.35561688  0.02501248    -0.54800
O168        O  0.12666517  0.45780429  0.03238999    -0.74100
C169        C  0.15278380  0.48932883  0.00209744     0.98200
O170        O  0.10976571  0.59822308  0.88361423    -0.62900
O171        O  0.86726760  0.41456158  0.87026810    -0.57700
O172        O  0.04530528  0.52075440  0.87150907    -0.94400
O173        O  0.96413067  0.45598968  0.86245349    -0.92900
O174        O  0.89574899  0.55417760  0.87656541    -0.93200
O175        O  0.98605011  0.63569365  0.89299017    -0.92000
C176        C  0.00488503  0.48933719  0.84721381     1.17100
H177        H  0.87248194  0.45859682  0.95605264     0.33000
H178        H  0.06024747  0.62388189  0.97012461     0.43900
H179        H  0.03665004  0.43595652  0.94936731     0.37400
H180        H  0.02196124  0.46370974  0.11222778     0.33900
H181        H  0.94114242  0.64797972  0.95183675     0.25700
H182        H  0.14113482  0.60476757  0.13716878     0.31600
H183        H  0.12306216  0.47402397  0.12246585     0.37500
H184        H  0.88174887  0.51818362  0.87175815     0.32000
H185        H  0.84993726  0.37720926  0.86885874     0.30800
H186        H  0.90994252  0.33607548  0.90594868     0.32500
H187        H  0.05076667  0.36770588  0.99778148     0.31500
H188        H  0.01096196  0.63151012  0.88280524     0.35500
H189        H  0.10063965  0.62635263  0.87625291     0.28200
H190        H  0.87354523  0.39755883  0.12378497     0.32500
H191        H  0.02840042  0.34176438  0.11241382     0.35300
H192        H  0.84285843  0.42043553  0.87942533     0.27900
H193        H  0.14712661  0.61439538  0.89486286     0.40800
H194        H  0.06177439  0.66252612  0.03781227     0.30800
H195        H  0.95577150  0.62792321  0.00355153     0.38500
H196        H  0.99800762  0.33548102  0.01297955     0.30300
H197        H  0.12009674  0.54509163  0.14688914     0.30400
H198        H  0.91774106  0.38296044  0.13362907     0.30600
Zr199      Zr  0.93326423  0.45699755  0.55057957     2.17500
O200        O  0.89954810  0.38304923  0.60834032    -0.51700
O201        O  0.86654778  0.48207805  0.53628690    -0.74900
O202        O  0.95743781  0.48112129  0.62710660    -0.81700
O203        O  0.86205545  0.36617368  0.46061332    -0.83500
O204        O  0.03935204  0.54431959  0.63643358    -0.79100
O205        O  0.85747133  0.38056905  0.52774523    -0.90700
O206        O  0.87926518  0.54570401  0.47593312    -0.76700
O207        O  0.97713051  0.54805761  0.53610145    -0.86200
O208        O  0.91239605  0.47824047  0.46960212    -0.85900
O209        O  0.02166133  0.47843161  0.57829213    -0.72600
O210        O  0.95983461  0.41412398  0.51675531    -0.84700
Zr211      Zr  0.07251148  0.55051925  0.44622044     2.26400
Zr212      Zr  0.06521828  0.57013081  0.56189061     2.06300
Zr213      Zr  0.93932764  0.43682216  0.43569421     2.10000
Zr214      Zr  0.95763496  0.56909902  0.45480282     1.78800
O215        O  0.93692948  0.36088059  0.42115525    -0.93600
O216        O  0.97031964  0.64505206  0.47985166    -0.41400
O217        O  0.98425634  0.52835509  0.41931541    -0.78000
O218        O  0.04630586  0.59371824  0.48022934    -0.96700
O219        O  0.09319915  0.52951063  0.52748208    -0.90000
O220        O  0.02779303  0.45922768  0.46087279    -0.92800
C221        C  0.85322369  0.51323653  0.50583245     1.00900
C222        C  0.83978461  0.35467052  0.49420676     1.13900
C223        C  0.99828339  0.51179739  0.65159713     1.04600
O224        O  0.06034073  0.64522826  0.56839285    -0.95000
O225        O  0.14434622  0.63836054  0.53962194    -0.90700
O226        O  0.14659805  0.62921276  0.46930626    -0.83900
C227        C  0.16511361  0.65309896  0.50451374     1.11300
O228        O  0.00999691  0.35852394  0.59204797    -0.97000
Zr229      Zr  0.04887004  0.43879346  0.54217019     1.88900
O230        O  0.14103352  0.52815828  0.46177552    -0.73600
O231        O  0.13992107  0.58963002  0.62406230    -0.52900
O232        O  0.10335816  0.44506804  0.61848238    -0.97500
O233        O  0.04762632  0.36743992  0.51899013    -0.54800
O234        O  0.13217386  0.46988968  0.52616567    -0.74100
C235        C  0.15694507  0.50078837  0.49480600     0.98200
O236        O  0.10175084  0.61424405  0.38030433    -0.62900
O237        O  0.86669208  0.42794279  0.37294425    -0.57700
O238        O  0.04529725  0.52740622  0.36842296    -0.94400
O239        O  0.96372598  0.46372732  0.36141859    -0.92900
O240        O  0.89827243  0.55752126  0.38092209    -0.93200
O241        O  0.98872295  0.64725968  0.40062154    -0.92000
C242        C  0.00357692  0.49615382  0.34487126     1.17100
H243        H  0.87614952  0.46582430  0.45889016     0.33000
H244        H  0.06481924  0.63044661  0.47247670     0.43900
H245        H  0.03760343  0.44385490  0.44439261     0.37400
H246        H  0.02792402  0.46711938  0.61086401     0.33900
H247        H  0.94336646  0.65315251  0.45909242     0.25700
H248        H  0.13991629  0.61366047  0.64037460     0.31600
H249        H  0.12395530  0.48235220  0.62019554     0.37500
H250        H  0.89397236  0.58883836  0.37152610     0.32000
H251        H  0.84848172  0.39123020  0.36876288     0.30800
H252        H  0.94287591  0.34237097  0.45214151     0.32500
H253        H  0.07368211  0.36036202  0.54280319     0.31500
H254        H  0.01848797  0.64912440  0.39315593     0.35500
H255        H  0.10094556  0.64485560  0.38454093     0.28200
H256        H  0.87830943  0.38936661  0.62182937     0.32500
H257        H  0.03785753  0.35010611  0.60932063     0.35300
H258        H  0.84366985  0.43247013  0.38565030     0.27900
H259        H  0.13831615  0.62448599  0.38451908     0.40800
H260        H  0.03142200  0.63149719  0.58390920     0.30800
H261        H  0.96007546  0.63285376  0.51013377     0.38500
H262        H  0.06248314  0.38178442  0.49098883     0.30300
H263        H  0.13187719  0.55760593  0.64593806     0.30400
H264        H  0.92908254  0.38536899  0.63335407     0.30600
Zr265      Zr  0.43671772  0.92898575  0.94275961     2.17500
O266        O  0.35480511  0.89603243  0.88988511    -0.51700
O267        O  0.45607620  0.86113562  0.94216326    -0.74900
O268        O  0.45234212  0.95185820  0.86414973    -0.81700
O269        O  0.37037090  0.85763485  0.04567725    -0.83500
O270        O  0.52168267  0.03066941  0.86136605    -0.79100
O271        O  0.36373953  0.85510552  0.97045975    -0.90700
O272        O  0.52965957  0.87469805  0.99382911    -0.76700
O273        O  0.52670663  0.97511035  0.94965303    -0.86200
O274        O  0.47182032  0.90707021  0.02026343    -0.85900
O275        O  0.45651872  0.01803328  0.92385889    -0.72600
O276        O  0.40788204  0.95606496  0.99014811    -0.84700
Zr277      Zr  0.55551886  0.06989665  0.05785955     2.26400
Zr278      Zr  0.54738683  0.06385587  0.93334213     2.06300
Zr279      Zr  0.44508109  0.93558194  0.06755091     2.10000
Zr280      Zr  0.56134896  0.95285697  0.02688777     1.78800
O281        O  0.37318736  0.92172722  0.09569190    -0.93600
O282        O  0.62878185  0.97003313  0.99012973    -0.41400
O283        O  0.53545824  0.98096838  0.07602504    -0.78000
O284        O  0.58481133  0.04258652  0.01067416    -0.96700
O285        O  0.51989124  0.09172857  0.98055776    -0.90000
O286        O  0.46553430  0.02411740  0.05086838    -0.92800
C287        C  0.49098551  0.84834988  0.96443136     1.00900
C288        C  0.34808145  0.83666390  0.00873382     1.13900
C289        C  0.48628276  0.99046552  0.84328458     1.04600
O290        O  0.62248471  0.08558035  0.90579730    -0.95000
O291        O  0.62068604  0.14400555  0.95514686    -0.90700
O292        O  0.62746189  0.14589039  0.03060316    -0.83900
C293        C  0.64293036  0.16496176  0.99228270     1.11300
O294        O  0.34689364  0.01640172  0.92198023    -0.97000
Zr295      Zr  0.43010638  0.04522890  0.97346530     1.88900
O296        O  0.53558198  0.13796548  0.05688578    -0.73600
O297        O  0.52727238  0.12536863  0.87461303    -0.52900
O298        O  0.43055968  0.11207982  0.90926664    -0.97500
O299        O  0.36047277  0.02256433  0.00989832    -0.54800
O300        O  0.46055197  0.12254112  0.00665104    -0.74100
C301        C  0.49940825  0.14932193  0.03544708     0.98200
O302        O  0.63182747  0.09452298  0.11851711    -0.62900
O303        O  0.46005844  0.87053971  0.12553779    -0.57700
O304        O  0.54076429  0.04592552  0.13653904    -0.94400
O305        O  0.47578535  0.96427346  0.14174898    -0.92900
O306        O  0.56025305  0.88942758  0.09438434    -0.93200
O307        O  0.64440466  0.98066201  0.07835271    -0.92000
C308        C  0.51004898  0.00537043  0.15870279     1.17100
H309        H  0.46001280  0.87055623  0.02800479     0.33000
H310        H  0.62145817  0.06147357  0.01494240     0.43900
H311        H  0.45482904  0.03339652  0.07202212     0.37400
H312        H  0.44087475  0.02440817  0.89224024     0.33900
H313        H  0.63628557  0.94080089  0.00295802     0.25700
H314        H  0.55515058  0.14263681  0.85722378     0.31600
H315        H  0.42449232  0.09754929  0.88141515     0.37500
H316        H  0.56619674  0.86482008  0.08463467     0.32000
H317        H  0.43315356  0.85591863  0.14369642     0.30800
H318        H  0.36887483  0.89339546  0.12144586     0.32500
H319        H  0.37671594  0.03981648  0.03789983     0.31500
H320        H  0.64690248  0.00617415  0.09462258     0.35500
H321        H  0.65825448  0.09626348  0.10545536     0.28200
H322        H  0.35641825  0.87438736  0.87202022     0.32500
H323        H  0.33624196  0.04262730  0.91955931     0.35300
H324        H  0.45110135  0.84269495  0.10851404     0.27900
H325        H  0.64292700  0.13052243  0.12128289     0.40800
H326        H  0.62571401  0.05367636  0.91396421     0.30800
H327        H  0.61204021  0.96479780  0.95764232     0.38500
H328        H  0.34809977  0.98563591  0.02163912     0.30300
H329        H  0.53313342  0.15189717  0.89172807     0.30400
H330        H  0.35501861  0.92618200  0.86777489     0.30600
Zr331      Zr  0.44980934  0.93282237  0.44183753     2.17500
O332        O  0.37344633  0.89525268  0.38332495    -0.51700
O333        O  0.47576095  0.86804996  0.44688427    -0.74900
O334        O  0.47009145  0.95724695  0.36547169    -0.81700
O335        O  0.37278680  0.86201357  0.53614055    -0.83500
O336        O  0.53609512  0.03832321  0.36314080    -0.79100
O337        O  0.37542764  0.85715795  0.46444865    -0.90700
O338        O  0.54609722  0.88449992  0.50298351    -0.76700
O339        O  0.54014450  0.98067867  0.45458528    -0.86200
O340        O  0.47962653  0.91290372  0.52148816    -0.85900
O341        O  0.46704897  0.02107420  0.42038631    -0.72600
O342        O  0.41313977  0.95929428  0.48218886    -0.84700
Zr343      Zr  0.55472171  0.07533590  0.55730669     2.26400
Zr344      Zr  0.55807817  0.06869574  0.43594373     2.06300
Zr345      Zr  0.44480000  0.94017406  0.56196607     2.10000
Zr346      Zr  0.56959027  0.96061160  0.53416339     1.78800
O347        O  0.36991340  0.92975200  0.58226100    -0.93600
O348        O  0.64348726  0.98734068  0.50209484    -0.41400
O349        O  0.53586008  0.98673368  0.57782985    -0.78000
O350        O  0.59042853  0.04895642  0.51570930    -0.96700
O351        O  0.52458723  0.09654314  0.47765488    -0.90000
O352        O  0.46431995  0.02839543  0.54335686    -0.92800
C353        C  0.51145346  0.85752663  0.47205676     1.00900
C354        C  0.35525503  0.83959295  0.50010991     1.13900
C355        C  0.50292108  0.99746067  0.34510872     1.04600
O356        O  0.63095231  0.09017399  0.40513022    -0.95000
O357        O  0.63427776  0.14363053  0.46288928    -0.90700
O358        O  0.63004362  0.15088959  0.53334604    -0.83900
C359        C  0.65188839  0.16635052  0.49869748     1.11300
O360        O  0.35433979  0.02465586  0.40773203    -0.97000
Zr361      Zr  0.43435115  0.04844800  0.46389817     1.88900
O362        O  0.52790869  0.13899162  0.55289447    -0.73600
O363        O  0.54396273  0.13627390  0.38147634    -0.52900
O364        O  0.44201665  0.11210511  0.39554185    -0.97500
O365        O  0.35843471  0.02424839  0.49165345    -0.54800
O366        O  0.45808814  0.12460274  0.49587257    -0.74100
C367        C  0.49272418  0.15026297  0.52775546     0.98200
O368        O  0.63168984  0.11367667  0.61474458    -0.62900
O369        O  0.45317680  0.87268117  0.62126171    -0.57700
O370        O  0.53481211  0.04711841  0.63540597    -0.94400
O371        O  0.46642222  0.96756458  0.63568444    -0.92900
O372        O  0.56842443  0.89443393  0.59898772    -0.93200
O373        O  0.64750688  0.98804621  0.59270887    -0.92000
C374        C  0.50062742  0.00705743  0.65514964     1.17100
H375        H  0.46869276  0.87659332  0.52996192     0.33000
H376        H  0.62712069  0.06757087  0.52280052     0.43900
H377        H  0.45071458  0.03715106  0.56234861     0.37400
H378        H  0.45345406  0.02718178  0.38800017     0.33900
H379        H  0.65820291  0.96434137  0.51993017     0.25700
H380        H  0.56919794  0.16835595  0.39483965     0.31600
H381        H  0.46857447  0.14517081  0.40655884     0.37500
H382        H  0.55391057  0.89907244  0.62104114     0.32000
H383        H  0.44169000  0.84357706  0.60471586     0.30800
H384        H  0.35920983  0.89781729  0.60429736     0.32500
H385        H  0.37108485  0.03533386  0.52253242     0.31500
H386        H  0.64508931  0.01010996  0.60948448     0.35500
H387        H  0.62327512  0.12893414  0.63369756     0.28200
H388        H  0.38105414  0.87749622  0.36617982     0.32500
H389        H  0.34656164  0.05352765  0.40249693     0.35300
H390        H  0.42619933  0.86102119  0.63863649     0.27900
H391        H  0.63533239  0.08425449  0.63507806     0.40800
H392        H  0.63871442  0.06116290  0.41832696     0.30800
H393        H  0.62922996  0.97655529  0.47098616     0.38500
H394        H  0.34194379  0.98632233  0.49777697     0.30300
H395        H  0.55620130  0.13890265  0.35414201     0.30400
H396        H  0.37167665  0.92467675  0.36129729     0.30600
C397        C  0.53356779  0.00242856  0.78586585    -0.06200
C398        C  0.48677396  0.98969699  0.79529592    -0.00200
C399        C  0.44447350  0.98242601  0.75849506    -0.08800
C400        C  0.45139981  0.99049358  0.71314838    -0.06200
C401        C  0.49874390  0.00472146  0.70360469    -0.00300
C402        C  0.54009075  0.00902614  0.74075652    -0.08700
C403        C  0.59069580  0.01972587  0.73321949     0.61700
H404        H  0.56545469  0.00762558  0.81447873     0.12400
H405        H  0.41953305  0.98526958  0.68452536     0.12400
C406        C  0.39252603  0.96659008  0.76691013     0.61900
F407        F  0.62220997  0.01320745  0.77423154    -0.23300
F408        F  0.61506703  0.06975912  0.71304920    -0.20600
F409        F  0.58316248  0.98667422  0.70505453    -0.20300
F410        F  0.39621148  0.00076241  0.79157703    -0.20300
F411        F  0.37403088  0.91799511  0.79140459    -0.20700
F412        F  0.35766376  0.96536436  0.72617010    -0.23300
C413        C  0.53313130  0.98041604  0.28878605    -0.06200
C414        C  0.50270791  0.99771089  0.29717855    -0.00200
C415        C  0.47582103  0.01861581  0.26010229    -0.08800
C416        C  0.48097905  0.02237006  0.21521089    -0.06200
C417        C  0.51179756  0.00567304  0.20682424    -0.00300
C418        C  0.53769185  0.98354377  0.24370215    -0.08700
C419        C  0.56972716  0.96344587  0.23509952     0.61700
H420        H  0.55341007  0.96469836  0.31784587     0.12400
H421        H  0.46034332  0.03766759  0.18610406     0.12400
C422        C  0.44178214  0.03661701  0.26812536     0.61900
F423        F  0.59266299  0.94438157  0.27571808    -0.23300
F424        F  0.60751443  0.00264033  0.21266195    -0.20600
F425        F  0.53942854  0.92432623  0.20801870    -0.20300
F426        F  0.47052056  0.07630031  0.29465110    -0.20300
F427        F  0.40473743  0.99651746  0.29076573    -0.20700
F428        F  0.41766961  0.05399542  0.22721778    -0.23300
C429        C  0.25213441  0.70190240  0.48830487    -0.06200
C430        C  0.21367757  0.70114590  0.50404543    -0.00200
C431        C  0.22147644  0.74652446  0.51663561    -0.08800
C432        C  0.26850831  0.79056805  0.51477985    -0.06200
C433        C  0.30710100  0.79126046  0.49956935    -0.00300
C434        C  0.29903932  0.74640391  0.48574291    -0.08700
C435        C  0.33993188  0.74486548  0.46969379     0.61700
H436        H  0.24513416  0.66702540  0.47821907     0.12400
H437        H  0.27544117  0.82542837  0.52485648     0.12400
C438        C  0.17996791  0.74948454  0.53020686     0.61900
F439        F  0.32581894  0.69593868  0.46264833    -0.23300
F440        F  0.38458098  0.76081331  0.50248291    -0.20600
F441        F  0.34867887  0.77660965  0.42851882    -0.20300
F442        F  0.17136277  0.72071994  0.57258848    -0.20300
F443        F  0.13553018  0.73119642  0.49743962    -0.20700
F444        F  0.19314963  0.79934717  0.53348543    -0.23300
C445        C  0.79001714  0.26139237  0.49408219    -0.06200
C446        C  0.79099572  0.30732495  0.49544560    -0.00200
C447        C  0.74669783  0.30662919  0.50037658    -0.08800
C448        C  0.70184760  0.25957999  0.50152448    -0.06200
C449        C  0.70083759  0.21373715  0.49964132    -0.00300
C450        C  0.74596311  0.21414265  0.49759398    -0.08700
C451        C  0.74839161  0.16488946  0.50129026     0.61700
H452        H  0.82466791  0.26273941  0.49152191     0.12400
H453        H  0.66713640  0.25812110  0.50406280     0.12400
C454        C  0.74662370  0.35509956  0.50442576     0.61900
F455        F  0.79784696  0.17371729  0.50667926    -0.23300
F456        F  0.72023519  0.14205812  0.46194254    -0.20600
F457        F  0.72926656  0.13159426  0.53903812    -0.20300
F458        F  0.76677078  0.39323789  0.46946553    -0.20300
F459        F  0.77542888  0.37140181  0.54651302    -0.20700
F460        F  0.69794532  0.34714004  0.50141639    -0.23300
C461        C  0.04192035  0.50634277  0.73338514    -0.06200
C462        C  0.99907539  0.50694123  0.70136874    -0.00200
C463        C  0.95768462  0.50026977  0.71772762    -0.08800
C464        C  0.96119327  0.49400590  0.76558129    -0.06200
C465        C  0.00414344  0.49381332  0.79754944    -0.00300
C466        C  0.04497304  0.49907370  0.78130107    -0.08700
C467        C  0.09079000  0.49521010  0.81406226     0.61700
H468        H  0.07287473  0.51065514  0.72047713     0.12400
H469        H  0.93017398  0.48945555  0.77854380     0.12400
C470        C  0.91006104  0.50022873  0.68518075     0.61900
F471        F  0.11985784  0.48994336  0.79126046    -0.23300
F472        F  0.07490751  0.45290287  0.84720201    -0.20600
F473        F  0.12152137  0.53899223  0.83522222    -0.20300
F474        F  0.88157190  0.45520395  0.66565185    -0.20300
F475        F  0.92317339  0.54160941  0.65083109    -0.20700
F476        F  0.87967881  0.50362002  0.70782974    -0.23300
C477        C  0.96991761  0.46352671  0.22274762    -0.06200
C478        C  0.99530939  0.51219813  0.19835593    -0.00200
C479        C  0.02302482  0.55570420  0.22249596    -0.08800
C480        C  0.02506964  0.54834663  0.27022728    -0.06200
C481        C  0.00032380  0.49950745  0.29468830    -0.00300
C482        C  0.97218990  0.45610312  0.27044985    -0.08700
C483        C  0.94635444  0.40170308  0.29461942     0.61700
H484        H  0.94909532  0.43063606  0.20416690     0.12400
H485        H  0.04609858  0.58117334  0.28894485     0.12400
C486        C  0.04994800  0.60992262  0.19850174     0.60700
F487        F  0.92903522  0.36539198  0.26587586    -0.23300
F488        F  0.90478754  0.39416296  0.30909231    -0.20600
F489        F  0.98051325  0.39326329  0.33207311    -0.20300
F490        F  0.01804068  0.61807991  0.15864024    -0.20300
F491        F  0.09351594  0.61731658  0.18788012    -0.20700
F492        F  0.06418191  0.64639695  0.22605646    -0.23300
C493        C  0.24822734  0.70054267  0.03985480    -0.06200
C494        C  0.20659324  0.69818312  0.00470283    -0.00200
C495        C  0.21059236  0.74216303  0.97270521    -0.08800
C496        C  0.25794544  0.78642716  0.97500138    -0.06200
C497        C  0.29997205  0.78862773  0.00963594    -0.00300
C498        C  0.29486182  0.74567663  0.04373547    -0.08700
C499        C  0.33767352  0.74735774  0.08437631     0.61700
H500        H  0.24349818  0.66671440  0.06474276     0.12400
H501        H  0.26234710  0.82023850  0.95018911     0.12400
C502        C  0.16485209  0.74298982  0.93745009     0.61900
F503        F  0.34678318  0.78124882  0.11235168    -0.23300
F504        F  0.38145985  0.76280624  0.06914874    -0.20600
F505        F  0.32565090  0.69993264  0.11088624    -0.20300
F506        F  0.12556649  0.72811733  0.95925981    -0.20300
F507        F  0.14893531  0.70989362  0.90619459    -0.20700
F508        F  0.17606389  0.79142454  0.91330905    -0.23300
C509        C  0.74552292  0.30069704  0.96241767    -0.06200
C510        C  0.78818951  0.30006815  0.99451167    -0.00200
C511        C  0.78274410  0.25535826  0.02606422    -0.08800
C512        C  0.73424521  0.21251595  0.02448129    -0.06200
C513        C  0.69168490  0.21277271  0.99205049    -0.00300
C514        C  0.69699372  0.25753381  0.96056266    -0.08700
C515        C  0.65160666  0.25999165  0.92587808     0.61700
H516        H  0.75060349  0.33546376  0.93883030     0.12400
H517        H  0.72925031  0.17779959  0.04811697     0.12400
C518        C  0.82812290  0.25222954  0.06021169     0.61900
F519        F  0.66402890  0.30880926  0.90224075    -0.23300
F520        F  0.61300505  0.24611508  0.94821220    -0.20600
F521        F  0.63415252  0.22697625  0.89402788    -0.20300
F522        F  0.84841789  0.28717377  0.09079852    -0.20300
F523        F  0.86488667  0.26287429  0.03694737    -0.20700
F524        F  0.81479441  0.20400793  0.08545605    -0.23300
C525        C  0.54648402  0.75033383  0.48440271    -0.06200
C526        C  0.50123912  0.71365017  0.46158517    -0.00200
C527        C  0.46113275  0.72538923  0.43854061    -0.08800
C528        C  0.46651586  0.77322421  0.44168619    -0.06200
C529        C  0.51120037  0.80992030  0.46648525    -0.00300
C530        C  0.55310144  0.79891641  0.48638114    -0.08700
C531        C  0.60533684  0.83775378  0.50859356     0.61700
H532        H  0.57664068  0.74004025  0.50143760     0.12400
H533        H  0.43508083  0.78160957  0.42545273     0.12400
C534        C  0.41280643  0.68690320  0.41150594     0.61900
F535        F  0.64142739  0.82104597  0.51790106    -0.23300
F536        F  0.60343536  0.84632254  0.54988387    -0.20600
F537        F  0.62168558  0.88312227  0.47892887    -0.20300
F538        F  0.38920022  0.64285727  0.44072840    -0.20300
F539        F  0.42481620  0.67454624  0.37803005    -0.20700
F540        F  0.37880985  0.70614680  0.38990018    -0.23300
C541        C  0.45636673  0.25199907  0.53108513    -0.06200
C542        C  0.50470452  0.29396621  0.54022906    -0.00200
C543        C  0.54853679  0.28744427  0.54967290    -0.08800
C544        C  0.54264196  0.23950142  0.54646788    -0.06200
C545        C  0.49435499  0.19783492  0.53454917    -0.00300
C546        C  0.45016767  0.20361868  0.52840834    -0.08700
C547        C  0.39668172  0.15935017  0.51952639     0.61700
H548        H  0.42339861  0.25799570  0.52438582     0.12400
H549        H  0.57615028  0.23475621  0.55196537     0.12400
C550        C  0.60123479  0.33099938  0.56365423     0.61900
F551        F  0.36053855  0.17137209  0.52285925    -0.23300
F552        F  0.39339465  0.11712310  0.55170165    -0.20600
F553        F  0.38482504  0.14712628  0.47570656    -0.20300
F554        F  0.60354731  0.34607859  0.60338865    -0.20300
F555        F  0.61132627  0.37225026  0.52909714    -0.20700
F556        F  0.63885269  0.31651652  0.57228903    -0.23300
C557        C  0.28823390  0.50710515  0.53741355    -0.06200
C558        C  0.29727320  0.50257191  0.49702377    -0.00200
C559        C  0.26184318  0.50217496  0.45497812    -0.08800
C560        C  0.21737939  0.50336204  0.45564800    -0.06200
C561        C  0.20685138  0.50434497  0.49660461    -0.00300
C562        C  0.24356026  0.50785114  0.53809874    -0.08700
C563        C  0.23589319  0.51214281  0.58315217     0.61700
H564        H  0.31577418  0.50816867  0.56910689     0.12400
H565        H  0.18926936  0.50139732  0.42421346     0.12400
C566        C  0.27016599  0.50013400  0.40940422     0.61900
F567        F  0.28020499  0.52550953  0.61643489    -0.23300
F568        F  0.19921083  0.46546653  0.59975075    -0.20600
F569        F  0.22082115  0.54934902  0.57647433    -0.20300
F570        F  0.26249870  0.45164645  0.40855435    -0.20300
F571        F  0.31908566  0.53613075  0.40366617    -0.20700
F572        F  0.23665934  0.51037362  0.37236104    -0.23300
C573        C  0.72648437  0.51688455  0.46378976    -0.06200
C574        C  0.71352771  0.51110084  0.50552974    -0.00200
C575        C  0.74503704  0.50301518  0.54760240    -0.08800
C576        C  0.78975946  0.50285898  0.54618384    -0.06200
C577        C  0.80417436  0.51132881  0.50435980    -0.00300
C578        C  0.77131893  0.51730178  0.46219398    -0.08700
C579        C  0.78278509  0.52419064  0.41534363     0.61700
H580        H  0.70168909  0.52271571  0.43213540     0.12400
H581        H  0.81479525  0.49783585  0.57798874     0.12400
C582        C  0.73191818  0.49485843  0.59387376     0.61900
F583        F  0.74097384  0.51842067  0.38018692    -0.23300
F584        F  0.79646790  0.48806069  0.41400998    -0.20600
F585        F  0.82180633  0.57294071  0.40677659    -0.20300
F586        F  0.68150333  0.45885360  0.59343390    -0.20300
F587        F  0.74010936  0.54074820  0.60312087    -0.20700
F588        F  0.76155293  0.47738672  0.62928274    -0.23300
C589        C  0.55083392  0.51321763  0.73578208    -0.06200
C590        C  0.50305437  0.49981274  0.70624778    -0.00200
C591        C  0.46152311  0.49134361  0.72328661    -0.08800
C592        C  0.47001037  0.49970838  0.76885305    -0.06200
C593        C  0.51780181  0.51325762  0.79853393    -0.00300
C594        C  0.55878777  0.51917342  0.78210558    -0.08700
C595        C  0.61060323  0.53164707  0.81320248     0.61700
H596        H  0.58186343  0.51861290  0.72225706     0.12400
H597        H  0.43868899  0.49363743  0.78236382     0.12400
C598        C  0.40787011  0.46990948  0.69444820     0.61900
F599        F  0.64691355  0.54375436  0.78867535    -0.23300
F600        F  0.60742790  0.48969802  0.84570939    -0.20600
F601        F  0.62685386  0.57315825  0.83526299    -0.20300
F602        F  0.39494699  0.42351521  0.68228500    -0.20300
F603        F  0.40493870  0.50346233  0.65497728    -0.20700
F604        F  0.37240604  0.46154962  0.71827283    -0.23300
C605        C  0.55022946  0.50766814  0.28700326    -0.06200
C606        C  0.51390547  0.51558100  0.29750705    -0.00200
C607        C  0.47281682  0.51650648  0.26169978    -0.08800
C608        C  0.46979508  0.50941583  0.21704943    -0.06200
C609        C  0.50603940  0.50147865  0.20652550    -0.00300
C610        C  0.54751766  0.50127433  0.24210276    -0.08700
C611        C  0.58947750  0.49545636  0.23286892     0.61700
H612        H  0.58115372  0.50665474  0.31454062     0.12400
H613        H  0.43865629  0.51001664  0.18958827     0.12400
C614        C  0.43173097  0.52436576  0.27016537     0.61900
F615        F  0.62988419  0.50457184  0.27010671    -0.23300
F616        F  0.60804813  0.53001233  0.19542455    -0.20600
F617        F  0.57047578  0.44606933  0.22412022    -0.20300
F618        F  0.45253670  0.57389480  0.27945330    -0.20300
F619        F  0.41130303  0.48976164  0.30682406    -0.20700
F620        F  0.39224201  0.51729973  0.23228499    -0.23300
C621        C  0.44146730  0.70747702  0.95281430    -0.06200
C622        C  0.48714559  0.70703414  0.95604945    -0.00200
C623        C  0.53304873  0.75368634  0.95764062    -0.08800
C624        C  0.53223564  0.79903627  0.95891747    -0.06200
C625        C  0.48681329  0.79968523  0.95694437    -0.00300
C626        C  0.44007337  0.75327246  0.95179061    -0.08700
C627        C  0.38891116  0.75144671  0.94548962     0.61700
H628        H  0.40675389  0.67129957  0.95128821     0.12400
H629        H  0.56752609  0.83457070  0.96201883     0.12400
C630        C  0.58288123  0.75514600  0.95918127     0.61900
F631        F  0.37974635  0.77968059  0.90392936    -0.23300
F632        F  0.38875262  0.77134507  0.98095136    -0.20600
F633        F  0.34923471  0.70186639  0.94507385    -0.20300
F634        F  0.57885326  0.73675121  0.92072676    -0.20300
F635        F  0.59394890  0.72504894  0.99838372    -0.20700
F636        F  0.62304126  0.80443021  0.95963105    -0.23300
C637        C  0.55019160  0.24310528  0.03632804    -0.06200
C638        C  0.50439843  0.19844979  0.04196818    -0.00200
C639        C  0.46407868  0.20252700  0.05021233    -0.08800
C640        C  0.47064651  0.25157831  0.05106585    -0.06200
C641        C  0.51509054  0.29640464  0.04210263    -0.00300
C642        C  0.55603875  0.29221557  0.03530747    -0.08700
C643        C  0.60557495  0.33921391  0.02622811     0.61700
H644        H  0.58054104  0.23940415  0.02992988     0.12400
H645        H  0.43972123  0.25547419  0.05591746     0.12400
C646        C  0.41381168  0.15562591  0.05693849     0.61900
F647        F  0.64337226  0.32624276  0.03017946    -0.23300
F648        F  0.62281520  0.37274809  0.05762707    -0.20600
F649        F  0.59798900  0.36374217  0.98211848    -0.20300
F650        F  0.42246527  0.11814913  0.08884125    -0.20300
F651        F  0.38701066  0.13676099  0.01543754    -0.20700
F652        F  0.38384594  0.16707095  0.07275250    -0.23300
C653        C  0.21366862  0.49480361  0.96182842    -0.06200
C654        C  0.20222721  0.49193717  0.00368274    -0.00200
C655        C  0.23877446  0.49377794  0.04504542    -0.08800
C656        C  0.28394590  0.49474211  0.04315471    -0.06200
C657        C  0.29408310  0.49478556  0.00155159    -0.00300
C658        C  0.25942043  0.49724234  0.95980647    -0.08700
C659        C  0.27100021  0.50433431  0.91302654     0.61700
H660        H  0.18597042  0.49453880  0.93041457     0.12400
H661        H  0.31145023  0.49442365  0.07454581     0.12400
C662        C  0.23107867  0.49596067  0.09088535     0.61900
F663        F  0.23886226  0.51884410  0.87785627    -0.23300
F664        F  0.26480875  0.45882573  0.90499456    -0.20600
F665        F  0.32040918  0.54233759  0.91140864    -0.20300
F666        F  0.19248424  0.44957611  0.10537214    -0.20300
F667        F  0.21873959  0.53475167  0.08638718    -0.20700
F668        F  0.27459723  0.50565570  0.12480347    -0.23300
C669        C  0.71800176  0.50406995  0.96042156    -0.06200
C670        C  0.71152374  0.51147773  0.00074888    -0.00200
C671        C  0.74947587  0.51573378  0.04161171    -0.08800
C672        C  0.79294877  0.51339436  0.03992102    -0.06200
C673        C  0.80021955  0.50819865  0.99904425    -0.00300
C674        C  0.76178824  0.50250001  0.95867055    -0.08700
C675        C  0.76610870  0.49362582  0.91407399     0.61700
H676        H  0.68870302  0.50061797  0.92970554     0.12400
H677        H  0.82263767  0.51722704  0.07038173     0.12400
C678        C  0.74481128  0.52278211  0.08694448     0.61900
F679        F  0.72123499  0.48144082  0.88158412    -0.23300
F680        F  0.77733324  0.45343139  0.92239439    -0.20600
F681        F  0.80398397  0.53754881  0.89555013    -0.20300
F682        F  0.69812269  0.48588401  0.09755868    -0.20300
F683        F  0.74979288  0.57110594  0.08360504    -0.20700
F684        F  0.78226661  0.51842492  0.12312458    -0.23300
loop_ 
_geom_bond_atom_site_label_1 
_geom_bond_atom_site_label_2 
_geom_bond_distance 
_geom_bond_site_symmetry_2 
_ccdc_geom_bond_type 
Zr1           O2   2.443       .  S
Zr1           O3   2.446       .  S
Zr1           O4   2.442       .  S
Zr1           O7   2.415       .  S
Zr1           O9   2.379       .  S
Zr1          O10   2.376   1_556  S
Zr1          O11   2.406       .  S
Zr1          O12   2.408   1_556  S
O2           H58   0.991       .  S
O2           H66   0.990       .  S
O3           C23   1.287       .  A
O4           C25   1.283       .  A
O5          Zr15   2.465       .  S
O5           C24   1.291       .  A
O6          Zr14   2.455       .  S
O6           C25   1.288       .  A
O7           C24   1.280   1_556  A
O8          Zr16   2.411       .  S
O8           C23   1.277   1_554  A
O9          Zr14   2.403       .  S
O9          Zr16   2.384   1_556  S
O10         Zr15   2.390       .  S
O10         Zr16   2.374       .  S
O10          H45   0.964       .  S
O11         Zr14   2.401       .  S
O11         Zr31   2.392       .  S
O11          H48   0.965       .  S
O12         Zr15   2.392       .  S
O12         Zr31   2.395   1_554  S
Zr13         O38   2.442       .  S
Zr13         O32   2.445       .  S
Zr13         O40   2.453       .  S
Zr13         O28   2.439       .  S
Zr13         O19   2.398       .  S
Zr13         O20   2.415   1_554  S
Zr13         O21   2.382   1_554  S
Zr13         O22   2.387       .  S
Zr14         O33   2.438       .  S
Zr14         O26   2.434       .  S
Zr14         O27   2.458       .  S
Zr14         O20   2.406       .  S
Zr14         O21   2.397       .  S
Zr15         O17   2.435       .  S
Zr15         O39   2.439       .  S
Zr15         O41   2.450       .  S
Zr15         O19   2.397       .  S
Zr15         O22   2.404       .  S
Zr16         O42   2.435       .  S
Zr16         O43   2.436       .  S
Zr16         O18   2.438   1_554  S
Zr16         O19   2.386       .  S
Zr16         O20   2.391   1_554  S
O17          H54   0.990       .  S
O18          H49   0.991   1_556  S
O18          H63   0.990       .  S
O20          H46   0.964       .  S
O21         Zr31   2.377       .  S
O22         Zr31   2.386   1_554  S
O22          H47   0.966       .  S
C23         C670   1.485   1_556  S
C24         C641   1.487       .  S
C25         C593   1.489       .  S
O26          H62   0.990       .  S
O27          C29   1.289       .  A
O28          C29   1.284   1_554  A
C29         C622   1.484       .  S
O30         Zr31   2.438       .  S
O30          H59   0.990       .  S
Zr31         O34   2.434       .  S
Zr31         O35   2.439   1_556  S
Zr31         O36   2.422       .  S
O32          C37   1.286       .  A
O33          H50   0.990       .  S
O33          H65   0.990       .  S
O34          H51   0.989       .  S
O35          H55   0.990       .  S
O35          H64   0.990       .  S
O36          C37   1.281   1_556  A
C37         C657   1.487       .  S
O38          H57   0.991       .  S
O38          H61   0.990       .  S
O39          H53   0.990       .  S
O39          H60   0.990       .  S
O40          C44   1.289       .  A
O41          C44   1.287       .  A
O42          H52   0.990       .  S
O43          H56   0.990       .  S
C44         C609   1.499       .  S
Zr67         O68   2.443       .  S
Zr67         O69   2.451       .  S
Zr67         O70   2.465       .  S
Zr67         O73   2.429       .  S
Zr67         O75   2.380       .  S
Zr67         O76   2.386       .  S
Zr67         O77   2.409       .  S
Zr67         O78   2.409       .  S
O68         H124   0.991       .  S
O68         H132   0.990       .  S
O69          C89   1.286       .  A
O70          C91   1.289       .  A
O71         Zr81   2.445       .  S
O71          C90   1.285       .  A
O72         Zr80   2.447       .  S
O72          C91   1.287       .  A
O73          C90   1.283       .  A
O74         Zr82   2.409       .  S
O74          C89   1.278       .  A
O75         Zr80   2.404       .  S
O75         Zr82   2.384       .  S
O76         Zr81   2.392       .  S
O76         Zr82   2.382       .  S
O76         H111   0.965       .  S
O77         Zr80   2.406       .  S
O77         Zr97   2.394       .  S
O77         H114   0.964       .  S
O78         Zr81   2.392       .  S
O78         Zr97   2.396       .  S
Zr79        O104   2.441       .  S
Zr79         O98   2.447       .  S
Zr79        O106   2.439       .  S
Zr79         O94   2.433       .  S
Zr79         O85   2.400       .  S
Zr79         O86   2.415       .  S
Zr79         O87   2.373       .  S
Zr79         O88   2.383       .  S
Zr80         O99   2.432       .  S
Zr80         O92   2.435       .  S
Zr80         O93   2.440       .  S
Zr80         O86   2.407       .  S
Zr80         O87   2.393       .  S
Zr81         O83   2.435       .  S
Zr81        O105   2.438       .  S
Zr81        O107   2.442       .  S
Zr81         O85   2.395       .  S
Zr81         O88   2.399       .  S
Zr82        O108   2.435       .  S
Zr82        O109   2.437       .  S
Zr82         O84   2.439       .  S
Zr82         O85   2.392       .  S
Zr82         O86   2.387       .  S
O83         H120   0.990       .  S
O84         H115   0.990       .  S
O84         H129   0.990       .  S
O86         H112   0.965       .  S
O87         Zr97   2.375       .  S
O88         Zr97   2.384       .  S
O88         H113   0.966       .  S
C89         C574   1.479       .  S
C90         C542   1.476       .  S
C91         C606   1.499       .  S
O92         H128   0.990       .  S
O93          C95   1.285       .  A
O94          C95   1.282       .  A
C95         C526   1.471       .  S
O96         Zr97   2.441       .  S
O96         H125   0.990       .  S
Zr97        O100   2.438       .  S
Zr97        O101   2.442       .  S
Zr97        O102   2.420       .  S
O98         C103   1.286       .  A
O99         H116   0.990       .  S
O99         H131   0.988       .  S
O100        H117   0.989       .  S
O101        H121   0.990       .  S
O101        H130   0.990       .  S
O102        C103   1.280       .  A
C103        C558   1.492       .  S
O104        H123   0.990       .  S
O104        H127   0.991       .  S
O105        H119   0.990       .  S
O105        H126   0.990       .  S
O106        C110   1.285       .  A
O107        C110   1.286       .  A
O108        H118   0.990       .  S
O109        H122   0.990       .  S
C110        C590   1.484       .  S
Zr133       O134   2.439       .  S
Zr133       O135   2.439       .  S
Zr133       O136   2.460       .  S
Zr133       O139   2.423       .  S
Zr133       O141   2.378       .  S
Zr133       O142   2.390   1_554  S
Zr133       O143   2.403   1_655  S
Zr133       O144   2.410       .  S
O134        H190   0.990       .  S
O134        H198   0.990       .  S
O135        C155   1.285   1_554  A
O136        C157   1.289       .  A
O137       Zr147   2.447       .  S
O137        C156   1.287       .  A
O138       Zr146   2.422       .  S
O138        C157   1.280   1_455  A
O139        C156   1.282   1_554  A
O140       Zr148   2.419       .  S
O140        C155   1.280       .  A
O141       Zr146   2.393   1_655  S
O141       Zr148   2.382   1_554  S
O142       Zr147   2.390       .  S
O142       Zr148   2.374       .  S
O142        H177   0.966       .  S
O143       Zr146   2.398       .  S
O143       Zr163   2.393       .  S
O143        H180   0.966       .  S
O144       Zr147   2.391   1_554  S
O144       Zr163   2.393   1_655  S
Zr145       O170   2.440       .  S
Zr145       O164   2.437       .  S
Zr145       O172   2.433       .  S
Zr145       O160   2.439       .  S
Zr145       O151   2.402   1_455  S
Zr145       O152   2.408       .  S
Zr145       O153   2.376   1_556  S
Zr145       O154   2.386       .  S
Zr146       O165   2.438       .  S
Zr146       O158   2.435       .  S
Zr146       O159   2.414       .  S
Zr146       O152   2.400   1_554  S
Zr146       O153   2.393       .  S
Zr147       O149   2.434       .  S
Zr147       O171   2.440       .  S
Zr147       O173   2.444       .  S
Zr147       O151   2.392       .  S
Zr147       O154   2.395   1_655  S
Zr148       O174   2.434       .  S
Zr148       O175   2.436       .  S
Zr148       O150   2.437       .  S
Zr148       O151   2.392       .  S
Zr148       O152   2.390   1_655  S
O149        H186   0.990       .  S
O150        H181   0.990       .  S
O150        H195   0.990   1_556  S
O152        H178   0.964       .  S
O153       Zr163   2.378       .  S
O154       Zr163   2.384   1_556  S
O154        H179   0.966       .  S
C155        C673   1.479       .  S
C156        C510   1.476       .  S
C157        C478   1.495       .  S
O158        H194   0.990       .  S
O159        C161   1.281       .  A
O160        C161   1.283   1_556  A
C161        C494   1.467       .  S
O162       Zr163   2.439       .  S
O162        H191   0.990       .  S
Zr163       O166   2.435       .  S
Zr163       O167   2.440       .  S
Zr163       O168   2.424       .  S
O164        C169   1.285   1_556  A
O165        H182   0.990       .  S
O165        H197   0.990       .  S
O166        H183   0.990       .  S
O167        H187   0.990   1_554  S
O167        H196   0.990   1_455  S
O168        C169   1.281       .  A
C169        C654   1.486       .  S
O170        H189   0.989       .  S
O170        H193   0.990       .  S
O171        H185   0.990       .  S
O171        H192   0.990       .  S
O172        C176   1.283       .  A
O173        C176   1.287   1_655  A
O174        H184   0.990       .  S
O175        H188   0.990   1_655  S
C176        C465   1.489       .  S
Zr199       O200   2.441       .  S
Zr199       O201   2.447       .  S
Zr199       O202   2.432       .  S
Zr199       O205   2.403       .  S
Zr199       O207   2.378       .  S
Zr199       O208   2.377       .  S
Zr199       O209   2.405   1_655  S
Zr199       O210   2.408       .  S
O200        H256   0.990       .  S
O200        H264   0.990       .  S
O201        C221   1.288       .  A
O202        C223   1.283       .  A
O203       Zr213   2.447       .  S
O203        C222   1.287       .  A
O204       Zr212   2.454       .  S
O204        C223   1.288   1_455  A
O205        C222   1.278       .  A
O206       Zr214   2.410       .  S
O206        C221   1.279       .  A
O207       Zr212   2.388   1_655  S
O207       Zr214   2.381       .  S
O208       Zr213   2.381       .  S
O208       Zr214   2.375       .  S
O208        H243   0.966       .  S
O209       Zr212   2.398       .  S
O209       Zr229   2.390       .  S
O209        H246   0.964       .  S
O210       Zr213   2.384       .  S
O210       Zr229   2.397   1_655  S
Zr211       O236   2.441       .  S
Zr211       O230   2.438       .  S
Zr211       O238   2.446       .  S
Zr211       O226   2.424       .  S
Zr211       O217   2.394   1_455  S
Zr211       O218   2.411       .  S
Zr211       O219   2.383       .  S
Zr211       O220   2.385       .  S
Zr212       O231   2.437       .  S
Zr212       O224   2.436       .  S
Zr212       O225   2.433       .  S
Zr212       O218   2.400       .  S
Zr212       O219   2.396       .  S
Zr213       O215   2.435       .  S
Zr213       O237   2.438       .  S
Zr213       O239   2.423       .  S
Zr213       O217   2.395       .  S
Zr213       O220   2.395   1_655  S
Zr214       O240   2.437       .  S
Zr214       O241   2.438       .  S
Zr214       O216   2.438       .  S
Zr214       O217   2.390       .  S
Zr214       O218   2.388   1_655  S
O215        H252   0.990       .  S
O216        H247   0.990       .  S
O216        H261   0.990       .  S
O218        H244   0.966       .  S
O219       Zr229   2.370       .  S
O220       Zr229   2.383       .  S
O220        H245   0.965       .  S
C221        C577   1.485       .  S
C222        C446   1.474       .  S
C223        C462   1.490       .  S
O224        H260   0.990       .  S
O225        C227   1.284       .  A
O226        C227   1.282       .  A
C227        C430   1.478       .  S
O228       Zr229   2.440       .  S
O228        H257   0.990       .  S
Zr229       O232   2.436       .  S
Zr229       O233   2.442       .  S
Zr229       O234   2.424       .  S
O230        C235   1.285       .  A
O231        H248   0.990       .  S
O231        H263   0.990       .  S
O232        H249   0.990       .  S
O233        H253   0.990       .  S
O233        H262   0.990       .  S
O234        C235   1.281       .  A
C235        C561   1.486       .  S
O236        H255   0.990       .  S
O236        H259   0.990       .  S
O237        H251   0.990       .  S
O237        H258   0.990       .  S
O238        C242   1.288       .  A
O239        C242   1.281   1_655  A
O240        H250   0.990       .  S
O241        H254   0.990   1_655  S
C242        C481   1.493       .  S
Zr265       O266   2.433       .  S
Zr265       O267   2.440       .  S
Zr265       O268   2.454       .  S
Zr265       O271   2.432       .  S
Zr265       O273   2.380       .  S
Zr265       O274   2.380   1_556  S
Zr265       O275   2.408   1_565  S
Zr265       O276   2.401       .  S
O266        H322   0.990       .  S
O266        H330   0.990       .  S
O267        C287   1.284       .  A
O268        C289   1.289       .  A
O269       Zr279   2.408       .  S
O269        C288   1.279       .  A
O270       Zr278   2.416       .  S
O270        C289   1.283   1_545  A
O271        C288   1.286   1_556  A
O272       Zr280   2.444   1_556  S
O272        C287   1.287       .  A
O273       Zr278   2.392   1_565  S
O273       Zr280   2.372   1_556  S
O274       Zr279   2.382       .  S
O274       Zr280   2.368       .  S
O274        H309   0.966       .  S
O275       Zr278   2.395       .  S
O275       Zr295   2.405       .  S
O275        H312   0.966       .  S
O276       Zr279   2.387   1_556  S
O276       Zr295   2.393   1_565  S
Zr277       O302   2.439       .  S
Zr277       O296   2.444       .  S
Zr277       O304   2.445       .  S
Zr277       O292   2.434       .  S
Zr277       O283   2.403   1_545  S
Zr277       O284   2.411       .  S
Zr277       O285   2.380   1_554  S
Zr277       O286   2.379       .  S
Zr278       O297   2.435       .  S
Zr278       O290   2.434       .  S
Zr278       O291   2.431       .  S
Zr278       O284   2.394   1_556  S
Zr278       O285   2.383       .  S
Zr279       O281   2.435       .  S
Zr279       O303   2.437       .  S
Zr279       O305   2.400       .  S
Zr279       O283   2.385       .  S
Zr279       O286   2.388   1_565  S
Zr280       O306   2.436       .  S
Zr280       O307   2.435       .  S
Zr280       O282   2.436   1_554  S
Zr280       O283   2.401       .  S
Zr280       O284   2.401   1_565  S
O281        H318   0.990       .  S
O282        H313   0.990   1_556  S
O282        H327   0.990       .  S
O284        H310   0.965       .  S
O285       Zr295   2.374       .  S
O286       Zr295   2.375   1_554  S
O286        H311   0.966       .  S
C287        C625   1.498       .  S
C288        C497   1.472       .  S
C289        C398   1.484       .  S
O290        H326   0.990       .  S
O291        C293   1.284       .  A
O292        C293   1.285   1_554  A
C293        C513   1.478       .  S
O294       Zr295   2.438       .  S
O294        H323   0.990       .  S
Zr295       O298   2.438       .  S
Zr295       O299   2.438   1_556  S
Zr295       O300   2.432   1_556  S
O296        C301   1.287       .  A
O297        H314   0.990       .  S
O297        H329   0.990       .  S
O298        H315   0.990       .  S
O299        H319   0.989       .  S
O299        H328   0.990   1_545  S
O300        C301   1.283       .  A
C301        C638   1.489       .  S
O302        H321   0.990       .  S
O302        H325   0.990       .  S
O303        H317   0.990       .  S
O303        H324   0.989       .  S
O304        C308   1.287       .  A
O305        C308   1.278   1_565  A
O306        H316   0.990       .  S
O307        H320   0.990   1_565  S
C308        C417   1.464       .  S
Zr331       O332   2.439       .  S
Zr331       O333   2.445       .  S
Zr331       O334   2.438       .  S
Zr331       O337   2.422       .  S
Zr331       O339   2.378       .  S
Zr331       O340   2.378       .  S
Zr331       O341   2.409   1_565  S
Zr331       O342   2.407       .  S
O332        H388   0.990       .  S
O332        H396   0.990       .  S
O333        C353   1.287       .  A
O334        C355   1.284       .  A
O335       Zr345   2.416       .  S
O335        C354   1.283       .  A
O336       Zr344   2.418       .  S
O336        C355   1.280   1_545  A
O337        C354   1.281       .  A
O338       Zr346   2.422       .  S
O338        C353   1.279       .  A
O339       Zr344   2.394   1_565  S
O339       Zr346   2.375       .  S
O340       Zr345   2.381       .  S
O340       Zr346   2.369       .  S
O340        H375   0.966       .  S
O341       Zr344   2.395       .  S
O341       Zr361   2.403       .  S
O341        H378   0.967       .  S
O342       Zr345   2.390       .  S
O342       Zr361   2.401   1_565  S
Zr343       O368   2.434       .  S
Zr343       O362   2.437       .  S
Zr343       O370   2.478       .  S
Zr343       O358   2.451       .  S
Zr343       O349   2.405   1_545  S
Zr343       O350   2.410       .  S
Zr343       O351   2.388       .  S
Zr343       O352   2.378       .  S
Zr344       O363   2.436       .  S
Zr344       O356   2.431       .  S
Zr344       O357   2.418       .  S
Zr344       O350   2.398       .  S
Zr344       O351   2.390       .  S
Zr345       O347   2.435       .  S
Zr345       O369   2.437       .  S
Zr345       O371   2.404       .  S
Zr345       O349   2.394       .  S
Zr345       O352   2.387   1_565  S
Zr346       O372   2.433       .  S
Zr346       O373   2.436       .  S
Zr346       O348   2.439       .  S
Zr346       O349   2.405       .  S
Zr346       O350   2.380   1_565  S
O347        H384   0.990       .  S
O348        H379   0.990       .  S
O348        H393   0.990       .  S
O350        H376   0.965       .  S
O351       Zr361   2.376       .  S
O352       Zr361   2.375       .  S
O352        H377   0.966       .  S
C353        C529   1.503       .  S
C354        C433   1.475       .  S
C355        C414   1.467       .  S
O356        H392   0.990       .  S
O357        C359   1.281       .  A
O358        C359   1.288       .  A
C359        C449   1.473       .  S
O360       Zr361   2.440       .  S
O360        H389   0.991       .  S
Zr361       O364   2.438       .  S
Zr361       O365   2.439       .  S
Zr361       O366   2.435       .  S
O362        C367   1.286       .  A
O363        H380   0.990       .  S
O363        H395   0.990       .  S
O364        H381   0.990       .  S
O365        H385   0.989       .  S
O365        H394   0.990   1_545  S
O366        C367   1.283       .  A
C367        C545   1.494       .  S
O368        H387   0.990       .  S
O368        H391   0.990       .  S
O369        H383   0.990       .  S
O369        H390   0.990       .  S
O370        C374   1.293       .  A
O371        C374   1.279   1_565  A
O372        H382   0.990       .  S
O373        H386   0.990   1_565  S
C374        C401   1.488       .  S
C397        C398   1.404   1_545  A
C397        C402   1.407       .  A
C397        H404   1.084       .  S
C398        C399   1.416       .  A
C399        C400   1.411       .  A
C399        C406   1.518       .  S
C400        C401   1.409   1_565  A
C400        H405   1.083       .  S
C401        C402   1.416       .  A
C402        C403   1.515       .  S
C403        F407   1.385       .  S
C403        F408   1.379       .  S
C403        F409   1.384   1_545  S
C406        F410   1.383   1_565  S
C406        F411   1.381       .  S
C406        F412   1.384       .  S
C413        C414   1.402       .  A
C413        C418   1.407       .  A
C413        H420   1.083       .  S
C414        C415   1.414   1_565  A
C415        C416   1.403       .  A
C415        C422   1.517       .  S
C416        C417   1.399       .  A
C416        H421   1.084       .  S
C417        C418   1.414   1_545  A
C418        C419   1.518       .  S
C419        F423   1.385       .  S
C419        F424   1.383   1_565  S
C419        F425   1.383       .  S
C422        F426   1.382       .  S
C422        F427   1.382   1_545  S
C422        F428   1.385       .  S
C429        C430   1.406       .  A
C429        C434   1.407       .  A
C429        H436   1.083       .  S
C430        C431   1.418       .  A
C431        C432   1.401       .  A
C431        C438   1.520       .  S
C432        C433   1.401       .  A
C432        H437   1.084       .  S
C433        C434   1.418       .  A
C434        C435   1.520       .  S
C435        F439   1.385       .  S
C435        F440   1.384       .  S
C435        F441   1.382       .  S
C438        F442   1.382       .  S
C438        F443   1.384       .  S
C438        F444   1.385       .  S
C445        C446   1.399       .  A
C445        C450   1.403       .  A
C445        H452   1.084       .  S
C446        C447   1.420       .  A
C447        C448   1.407       .  A
C447        C454   1.519       .  S
C448        C449   1.400       .  A
C448        H453   1.084       .  S
C449        C450   1.418       .  A
C450        C451   1.518       .  S
C451        F455   1.385       .  S
C451        F456   1.378       .  S
C451        F457   1.383       .  S
C454        F458   1.382       .  S
C454        F459   1.383       .  S
C454        F460   1.384       .  S
C461        C462   1.406   1_455  A
C461        C466   1.411       .  A
C461        H468   1.083       .  S
C462        C463   1.421       .  A
C463        C464   1.409       .  A
C463        C470   1.520       .  S
C464        C465   1.404   1_655  A
C464        H469   1.083       .  S
C465        C466   1.420       .  A
C466        C467   1.521       .  S
C467        F471   1.385       .  S
C467        F472   1.384       .  S
C467        F473   1.381       .  S
C470        F474   1.382       .  S
C470        F475   1.383       .  S
C470        F476   1.385       .  S
C477        C478   1.405       .  A
C477        C482   1.408       .  A
C477        H484   1.082       .  S
C478        C479   1.423   1_655  A
C479        C480   1.410       .  A
C479        C486   1.520       .  S
C480        C481   1.406       .  A
C480        H485   1.083       .  S
C481        C482   1.422   1_455  A
C482        C483   1.521       .  S
C483        F487   1.385       .  S
C483        F488   1.382       .  S
C483        F489   1.383       .  S
C486        F490   1.383       .  S
C486        F491   1.382       .  S
C486        F492   1.385       .  S
C493        C494   1.400       .  A
C493        C498   1.403       .  A
C493        H500   1.084       .  S
C494        C495   1.414   1_554  A
C495        C496   1.402       .  A
C495        C502   1.517       .  S
C496        C497   1.401   1_556  A
C496        H501   1.084       .  S
C497        C498   1.419       .  A
C498        C499   1.519       .  S
C499        F503   1.382       .  S
C499        F504   1.382       .  S
C499        F505   1.385       .  S
C502        F506   1.384       .  S
C502        F507   1.379       .  S
C502        F508   1.385       .  S
C509        C510   1.404       .  A
C509        C514   1.409       .  A
C509        H516   1.084       .  S
C510        C511   1.416   1_556  A
C511        C512   1.405       .  A
C511        C518   1.518       .  S
C512        C513   1.402   1_554  A
C512        H517   1.083       .  S
C513        C514   1.417       .  A
C514        C515   1.518       .  S
C515        F519   1.385       .  S
C515        F520   1.384       .  S
C515        F521   1.381       .  S
C518        F522   1.379       .  S
C518        F523   1.383       .  S
C518        F524   1.385       .  S
C525        C526   1.395       .  A
C525        C530   1.406       .  A
C525        H532   1.084       .  S
C526        C527   1.408       .  A
C527        C528   1.410       .  A
C527        C534   1.516       .  S
C528        C529   1.414       .  A
C528        H533   1.081       .  S
C529        C530   1.432       .  A
C530        C531   1.521       .  S
C531        F535   1.385       .  S
C531        F536   1.383       .  S
C531        F537   1.382       .  S
C534        F538   1.383       .  S
C534        F539   1.383       .  S
C534        F540   1.384       .  S
C541        C542   1.400       .  A
C541        C546   1.411       .  A
C541        H548   1.083       .  S
C542        C543   1.412       .  A
C543        C544   1.407       .  A
C543        C550   1.518       .  S
C544        C545   1.408       .  A
C544        H549   1.083       .  S
C545        C546   1.426       .  A
C546        C547   1.519       .  S
C547        F551   1.385       .  S
C547        F552   1.383       .  S
C547        F553   1.382       .  S
C550        F554   1.383       .  S
C550        F555   1.383       .  S
C550        F556   1.384       .  S
C557        C558   1.405       .  A
C557        C562   1.408       .  A
C557        H564   1.083       .  S
C558        C559   1.424       .  A
C559        C560   1.409       .  A
C559        C566   1.519       .  S
C560        C561   1.402       .  A
C560        H565   1.083       .  S
C561        C562   1.421       .  A
C562        C563   1.520       .  S
C563        F567   1.385       .  S
C563        F568   1.382       .  S
C563        F569   1.384       .  S
C566        F570   1.381       .  S
C566        F571   1.384       .  S
C566        F572   1.385       .  S
C573        C574   1.398       .  A
C573        C578   1.404       .  A
C573        H580   1.083       .  S
C574        C575   1.420       .  A
C575        C576   1.408       .  A
C575        C582   1.518       .  S
C576        C577   1.403       .  A
C576        H581   1.083       .  S
C577        C578   1.425       .  A
C578        C579   1.521       .  S
C579        F583   1.385       .  S
C579        F584   1.383       .  S
C579        F585   1.382       .  S
C582        F586   1.383       .  S
C582        F587   1.382       .  S
C582        F588   1.385       .  S
C589        C590   1.404       .  A
C589        C594   1.413       .  A
C589        H596   1.083       .  S
C590        C591   1.415       .  A
C591        C592   1.410       .  A
C591        C598   1.520       .  S
C592        C593   1.406       .  A
C592        H597   1.083       .  S
C593        C594   1.420       .  A
C594        C595   1.518       .  S
C595        F599   1.385       .  S
C595        F600   1.382       .  S
C595        F601   1.383       .  S
C598        F602   1.384       .  S
C598        F603   1.382       .  S
C598        F604   1.384       .  S
C605        C606   1.406       .  A
C605        C610   1.414       .  A
C605        H612   1.083       .  S
C606        C607   1.424       .  A
C607        C608   1.411       .  A
C607        C614   1.517       .  S
C608        C609   1.404       .  A
C608        H613   1.083       .  S
C609        C610   1.422       .  A
C610        C611   1.516       .  S
C611        F615   1.385       .  S
C611        F616   1.383       .  S
C611        F617   1.381       .  S
C614        F618   1.381       .  S
C614        F619   1.383       .  S
C614        F620   1.385       .  S
C621        C622   1.402       .  A
C621        C626   1.413       .  A
C621        H628   1.083       .  S
C622        C623   1.414       .  A
C623        C624   1.409       .  A
C623        C630   1.515       .  S
C624        C625   1.407       .  A
C624        H629   1.083       .  S
C625        C626   1.426       .  A
C626        C627   1.519       .  S
C627        F631   1.383       .  S
C627        F632   1.380       .  S
C627        F633   1.385       .  S
C630        F634   1.382       .  S
C630        F635   1.382       .  S
C630        F636   1.384       .  S
C637        C638   1.403       .  A
C637        C642   1.409       .  A
C637        H644   1.083       .  S
C638        C639   1.421       .  A
C639        C640   1.412       .  A
C639        C646   1.517       .  S
C640        C641   1.403       .  A
C640        H645   1.083       .  S
C641        C642   1.422       .  A
C642        C643   1.521       .  S
C643        F647   1.385       .  S
C643        F648   1.383       .  S
C643        F649   1.383   1_554  S
C646        F650   1.383       .  S
C646        F651   1.382       .  S
C646        F652   1.385       .  S
C653        C654   1.403   1_556  A
C653        C658   1.407       .  A
C653        H660   1.084       .  S
C654        C655   1.421       .  A
C655        C656   1.409       .  A
C655        C662   1.519       .  S
C656        C657   1.403       .  A
C656        H661   1.083       .  S
C657        C658   1.421   1_554  A
C658        C659   1.519       .  S
C659        F663   1.386       .  S
C659        F664   1.381       .  S
C659        F665   1.384       .  S
C662        F666   1.381       .  S
C662        F667   1.384       .  S
C662        F668   1.385       .  S
C669        C670   1.402   1_556  A
C669        C674   1.405       .  A
C669        H676   1.083       .  S
C670        C671   1.425       .  A
C671        C672   1.407       .  A
C671        C678   1.521       .  S
C672        C673   1.400   1_554  A
C672        H677   1.083       .  S
C673        C674   1.419       .  A
C674        C675   1.519       .  S
C675        F679   1.385       .  S
C675        F680   1.383       .  S
C675        F681   1.381       .  S
C678        F682   1.383       .  S
C678        F683   1.382       .  S
C678        F684   1.385       .  S
