geometry optimzed in LAMMPS
_audit_creation_date              2020-11-30 
_audit_creation_method            'lammps2cif' 
_symmetry_space_group_name_H-M    'P1' 
_symmetry_Int_Tables_number       1 
_symmetry_cell_setting            triclinic 
loop_ 
_symmetry_equiv_pos_as_xyz 
  x,y,z 
_cell_length_a                    49.038819 
_cell_length_b                    48.84467099043829 
_cell_length_c                    35.757098916879215 
_cell_angle_alpha                 97.79182867212529 
_cell_angle_beta                  80.53805595211593 
_cell_angle_gamma                 127.8416457670874 
loop_ 
_atom_site_label 
_atom_site_type_symbol 
_atom_site_fract_x 
_atom_site_fract_y 
_atom_site_fract_z 
_atom_site_charge 
C1          C  0.32562274  0.16133580  0.02752164     0.31100
C2          C  0.33067026  0.16485790  0.44787951     0.31100
C3          C  0.34160198  0.14534329  0.00146622    -0.05100
C4          C  0.29057711  0.14150406  0.01056261    -0.05900
C5          C  0.34617288  0.19741223  0.01145560    -0.05800
C6          C  0.34076500  0.14325133  0.46134655    -0.05100
C7          C  0.29473041  0.14780746  0.47037064    -0.05900
C8          C  0.35290975  0.19929156  0.47093190    -0.05800
C9          C  0.35055764  0.12274344  0.44493511    -0.31200
N10         N  0.35671621  0.11123439  0.47245637     0.15300
C11         C  0.35268300  0.12620959  0.00683264    -0.31200
H12         H  0.35458812  0.11987945  0.03366161     0.17300
C13         C  0.26203599  0.12468916  0.45920416    -0.30200
N14         N  0.23694822  0.10531322  0.99294533     0.14000
C15         C  0.25599429  0.11683140  0.02282953    -0.30200
C16         C  0.37189727  0.23382813  0.46366670    -0.30500
N17         N  0.37361583  0.25218270  0.99873477     0.14500
H18         H  0.37636079  0.24426120  0.43659829     0.17200
C19         C  0.36239989  0.23062318  0.02707339    -0.30500
H20         H  0.36450030  0.23836956  0.05692173     0.17200
H21         H  0.24557470  0.10732797  0.05117522     0.17200
H22         H  0.35351759  0.11637830  0.41525078     0.17200
H23         H  0.25539369  0.12076415  0.43058338     0.17200
C24         C  0.31907527  0.15702467  0.19931579     0.31100
C25         C  0.32323295  0.16029452  0.27777985     0.31100
C26         C  0.33503674  0.14092137  0.21186501    -0.05100
C27         C  0.33963173  0.19302476  0.21959310    -0.05900
C28         C  0.28421830  0.13736203  0.22534181    -0.05800
C29         C  0.33843510  0.14371215  0.25089271    -0.05100
C30         C  0.34219963  0.19522317  0.25857297    -0.05900
C31         C  0.28646824  0.13939798  0.26467308    -0.05800
C32         C  0.35540924  0.12984847  0.25430180    -0.31200
N33         N  0.35893375  0.11588977  0.22028169     0.15300
C34         C  0.34674342  0.12242212  0.19408961    -0.31200
H35         H  0.34673916  0.11452919  0.16430997     0.17300
C36         C  0.36287734  0.23039966  0.26895533    -0.30200
N37         N  0.37230366  0.24869146  0.23765260     0.14000
C38         C  0.35812484  0.22608330  0.20772433    -0.30200
C39         C  0.25297046  0.12055841  0.28236377    -0.30500
N40         N  0.23066888  0.10678489  0.25544647     0.14500
H41         H  0.24535221  0.11773128  0.31258944     0.17200
C42         C  0.24923914  0.11610733  0.22078681    -0.30500
H43         H  0.23783385  0.10841128  0.19431467     0.17200
H44         H  0.36129843  0.23335468  0.17915041     0.17200
H45         H  0.36575344  0.13052465  0.27908608     0.17200
H46         H  0.37068440  0.24182713  0.29692564     0.17200
O47         O  0.03102096  0.44314582  0.38140773    -0.74200
O48         O  0.02932510  0.44468837  0.44540415    -0.53100
C49         C  0.03599925  0.43582207  0.41175114     0.79500
O50         O  0.06309331  0.10997688  0.38943795    -0.58800
O51         O  0.01605662  0.08597621  0.35776673    -0.51900
C52         C  0.04596358  0.11222614  0.36785598     0.71500
O53         O  0.10171303  0.06294639  0.44452616    -0.73400
O54         O  0.07235882  0.01384970  0.47803776    -0.54000
C55         C  0.10024887  0.04260580  0.46549210     0.77500
O56         O  0.00075072  0.49264028  0.31471353    -0.58500
O57         O  0.45758860  0.99867742  0.32532695    -0.51700
C58         C  0.47095513  0.98430583  0.30842941     0.74100
Zr59       Zr  0.00789829  0.47251989  0.36609928     2.54700
O60         O  0.05609950  0.98456573  0.31572645    -0.79100
O61         O  0.47056203  0.41881738  0.33442053    -0.92500
Zr62       Zr  0.06135641  0.06580366  0.41725444     2.64700
O63         O  0.10701759  0.08466939  0.36484019    -0.97500
O64         O  0.09966204  0.11940310  0.45383493    -0.79500
O65         O  0.04613943  0.00881817  0.41137000    -0.82900
O66         O  0.02679031  0.03253596  0.36746632    -2.17600
O67         O  0.38815879  0.44396855  0.39972591    -0.66300
O68         O  0.41436682  0.49520505  0.37206567    -0.50900
C69         C  0.38825994  0.46369263  0.37903335     0.72500
O70         O  0.47001822  0.99437205  0.02914657    -0.59200
O71         O  0.00532831  0.48296469  0.03607318    -0.51200
C72         C  0.49303199  0.50118010  0.04637490     0.74300
O73         O  0.44826195  0.05867451  0.47548108    -0.70600
O74         O  0.45039251  0.05960676  0.41147821    -0.49300
C75         C  0.44150372  0.06499374  0.44591384     0.75700
O76         O  0.41898690  0.39968308  0.47149950    -0.65900
O77         O  0.46964824  0.42092034  0.49336169    -0.53100
C78         C  0.43784703  0.39589981  0.48798868     0.74000
Zr79       Zr  0.42394970  0.44405782  0.43981826     2.77500
O80         O  0.37860174  0.43415576  0.48925153    -0.96700
O81         O  0.38305327  0.38547539  0.41405923    -0.77500
Zr82       Zr  0.48104263  0.03931934  0.48925843     2.70100
O83         O  0.44750170  0.54292635  0.05010285    -0.78700
O84         O  0.02218520  0.09098064  0.01490256    -0.97800
Zr85       Zr  0.01083692  0.48005998  0.46991815     2.21500
Zr86       Zr  0.47538423  0.03012603  0.38459962     2.11100
O87         O  0.43947430  0.50098438  0.44552407    -2.46500
O88         O  0.45931659  0.47800117  0.48858564    -0.78500
O89         O  0.45781635  0.47148404  0.38375990    -0.70700
O90         O  0.02943751  0.03844471  0.47448011    -2.31700
O91         O  0.47407083  0.44575183  0.42305059    -2.27900
O92         O  0.01116294  0.06386281  0.43283656    -0.72500
H93         H  0.04046134  0.04591214  0.34523143     0.79500
H94         H  0.04329224  0.04899305  0.99399580     0.80600
H95         H  0.41800631  0.49826597  0.44968135     0.82800
H96         H  0.46818403  0.42280971  0.42041898     0.80400
H97         H  0.09240686  0.11294757  0.48068287     0.43500
H98         H  0.04201824  0.10026313  0.99495421     0.42400
H99         H  0.42259290  0.52604747  0.04626331     0.42100
H100        H  0.38898637  0.45673886  0.50353352     0.40000
H101        H  0.39761361  0.37844661  0.40159616     0.43200
H102        H  0.45978445  0.40137388  0.35392456     0.38000
H103        H  0.07737521  0.00593557  0.32529085     0.44100
H104        H  0.12889555  0.10032250  0.37696143     0.40500
H105        H  0.36088780  0.43125396  0.47565308     0.45400
H106        H  0.98357477  0.41213830  0.31746527     0.44100
H107        H  0.10579575  0.06382589  0.35639991     0.44300
H108        H  0.50956656  0.09956167  0.03411278     0.44600
O109        O  0.06503947  0.47870526  0.12820147    -0.74200
O110        O  0.04875615  0.46231886  0.18903579    -0.53100
C111        C  0.06452575  0.46419490  0.15604330     0.79500
O112        O  0.05453713  0.12111946  0.17965161    -0.58800
O113        O  0.01502168  0.09874619  0.13684181    -0.51900
C114        C  0.04026814  0.12419650  0.15491097     0.71500
O115        O  0.08796494  0.06788972  0.23136423    -0.73400
O116        O  0.06194677  0.01338657  0.24948965    -0.54000
C117        C  0.08822752  0.04583565  0.24695271     0.77500
O118        O  0.04603394  0.54449995  0.07162461    -0.58500
O119        O  0.50540786  0.05250247  0.07530905    -0.51700
C120        C  0.51819555  0.03678686  0.06197727     0.74100
Zr121      Zr  0.04367184  0.51068328  0.11757691     2.54700
O122        O  0.10514882  0.05649561  0.11658532    -0.79100
O123        O  0.55600287  0.49031621  0.05798460    -0.92500
Zr124      Zr  0.04939949  0.07323177  0.20387688     2.64700
O125        O  0.10824945  0.12189950  0.18209239    -0.97500
O126        O  0.05217126  0.10411001  0.26445700    -0.79500
O127        O  0.05423982  0.02791166  0.18058072    -0.82900
O128        O  0.03798572  0.05602512  0.14042582    -2.17600
O129        O  0.40213995  0.44617798  0.12110478    -0.66300
O130        O  0.42584344  0.50136865  0.10868920    -0.50900
C131        C  0.40099487  0.46849111  0.10772235     0.72500
O132        O  0.43202770  0.95444169  0.26329713    -0.59200
O133        O  0.96853339  0.44170590  0.26671506    -0.51200
C134        C  0.45460827  0.45728003  0.28381179     0.74300
O135        O  0.42180578  0.03183876  0.22342560    -0.70600
O136        O  0.44443290  0.05427315  0.16506615    -0.49300
C137        C  0.42513717  0.04893640  0.19628256     0.75700
O138        O  0.42912875  0.39509371  0.18291614    -0.65900
O139        O  0.47394643  0.41493411  0.21694862    -0.53100
C140        C  0.44485112  0.39060923  0.20387058     0.74000
Zr141      Zr  0.43989202  0.44327989  0.15349790     2.77500
O142        O  0.38035597  0.39379542  0.17181417    -0.96700
O143        O  0.44083808  0.41494002  0.09214348    -0.77500
Zr144      Zr  0.45084788  0.00854253  0.23941544     2.70100
O145        O  0.39896229  0.48525287  0.28472095    -0.78700
O146        O  0.97334114  0.05184588  0.28925641    -0.97800
Zr147      Zr  0.01012701  0.47648153  0.21543073     2.21500
Zr148      Zr  0.48069727  0.03752891  0.13917815     2.11100
O149        O  0.43530239  0.48870485  0.17817541    -2.46500
O150        O  0.45919162  0.46887498  0.21015171    -0.78500
O151        O  0.48368701  0.49083718  0.11811825    -0.70700
O152        O  0.00752107  0.02485993  0.24098733    -2.31700
O153        O  0.49713684  0.45986538  0.15232474    -2.27900
O154        O  0.99264786  0.05585818  0.20101553    -0.72500
H155        H  0.05474482  0.07695134  0.12672274     0.79500
H156        H  0.01500792  0.03300343  0.26594879     0.80600
H157        H  0.41229764  0.48218470  0.17836468     0.82800
H158        H  0.49734979  0.44036504  0.14379210     0.80400
H159        H  0.05621781  0.09370931  0.28271317     0.43500
H160        H  0.98330947  0.07363452  0.27704451     0.42400
H161        H  0.38021478  0.46405105  0.27159393     0.42100
H162        H  0.36846533  0.40406431  0.18305356     0.40000
H163        H  0.46286352  0.41776765  0.08898570     0.43200
H164        H  0.54458760  0.46543863  0.06082451     0.38000
H165        H  0.11302328  0.04947302  0.13449454     0.44100
H166        H  0.11862495  0.13590312  0.20538950     0.40500
H167        H  0.37025745  0.38234347  0.14755060     0.45400
H168        H  0.08002349  0.49775972  0.05600591     0.44100
H169        H  0.12059253  0.11167323  0.17334428     0.44300
H170        H  0.45265827  0.04756962  0.30744981     0.44600
C171        C  0.16043707  0.34792386  0.32407309     0.31100
C172        C  0.15966349  0.34467608  0.40254470     0.31100
C173        C  0.14382745  0.36274836  0.35187228    -0.05100
C174        C  0.13909911  0.31103343  0.34006583    -0.05900
C175        C  0.19533544  0.36614544  0.33968236    -0.05800
C176        C  0.14337558  0.36076117  0.39100924    -0.05100
C177        C  0.13871577  0.30948157  0.37947871    -0.05900
C178        C  0.19485413  0.36446311  0.37854054    -0.05800
C179        C  0.12174298  0.36824991  0.41005465    -0.31200
N180        N  0.11035373  0.37660920  0.38471543     0.15300
C181        C  0.12285571  0.37231786  0.34920885    -0.31200
H182        H  0.11664159  0.37536209  0.32314943     0.17300
C183        C  0.11696238  0.27478043  0.38739030    -0.30200
N184        N  0.10551831  0.25541132  0.35469139     0.14000
C185        C  0.11789433  0.27703539  0.32595403    -0.30200
C186        C  0.22855580  0.38229413  0.38590304    -0.30500
N187        N  0.24921175  0.39464691  0.35292504     0.14500
H188        H  0.23754772  0.38591806  0.41312954     0.17200
C189        C  0.22948496  0.38502260  0.32442157    -0.30500
H190        H  0.23929046  0.39110831  0.29497228     0.17200
H191        H  0.11271587  0.26846527  0.29672800     0.17200
H192        H  0.11392035  0.36654830  0.44027505     0.17200
H193        H  0.11039856  0.26398333  0.41477436     0.17200
C194        C  0.16670519  0.35174806  0.07334639     0.31100
C195        C  0.17003228  0.35701894  0.15232667     0.31100
C196        C  0.15498010  0.37219456  0.09791102    -0.05100
C197        C  0.14328873  0.31721718  0.09478754    -0.05900
C198        C  0.20251296  0.36930671  0.08704700    -0.05800
C199        C  0.15639761  0.37463562  0.13752956    -0.05100
C200        C  0.14566023  0.32038280  0.13394177    -0.05900
C201        C  0.20412191  0.37201396  0.12639758    -0.05800
C202        C  0.13965500  0.38857551  0.15358741    -0.31200
N203        N  0.12964886  0.39598492  0.12574228     0.15300
C204        C  0.13806910  0.38538635  0.09178200    -0.31200
H205        H  0.13127217  0.38618182  0.06485535     0.17300
C206        C  0.12193545  0.28803196  0.14797539    -0.30200
N207        N  0.10460023  0.26452695  0.11962400     0.14000
C208        C  0.11670799  0.28241143  0.08715837    -0.30200
C209        C  0.23862059  0.39172912  0.13203127    -0.30500
N210        N  0.25778759  0.40074338  0.09769777     0.14500
H211        H  0.24913919  0.39939965  0.15909682     0.17200
C212        C  0.23616820  0.38718789  0.07007937    -0.30500
H213        H  0.24444615  0.39072346  0.04000956     0.17200
H214        H  0.10658860  0.27138654  0.06003513     0.17200
H215        H  0.13382002  0.39202889  0.18354592     0.17200
H216        H  0.11821758  0.28190779  0.17713733     0.17200
C217        C  0.17229654  0.35808055  0.19680210    -0.04300
C218        C  0.17492962  0.33440857  0.21222236    -0.01400
C219        C  0.17130838  0.33129960  0.25240944     0.03600
C220        C  0.16497817  0.35182505  0.27924831    -0.04300
C221        C  0.17303650  0.38175032  0.26354425    -0.01400
C222        C  0.17675939  0.38486314  0.22320393     0.03600
C223        C  0.18505065  0.31549669  0.18687485     0.38200
C224        C  0.18328723  0.41209735  0.28813996     0.38200
C225        C  0.19184924  0.41845365  0.20925725     0.36600
C226        C  0.17911266  0.31023349  0.26554496     0.36600
N227        N  0.20426970  0.44558208  0.19866328    -0.38200
N228        N  0.18590954  0.29363703  0.27537304    -0.38200
N229        N  0.19210770  0.43667118  0.30743128    -0.37600
N230        N  0.19309877  0.30033283  0.16682768    -0.37600
C231        C  0.16318728  0.34686876  0.44678867    -0.04300
C232        C  0.16492228  0.32332072  0.46414487    -0.01400
C233        C  0.16724535  0.32575207  0.50420046     0.03600
C234        C  0.16700583  0.35028669  0.02839310    -0.04300
C235        C  0.17740970  0.38036056  0.50923620    -0.01400
C236        C  0.17478809  0.37802759  0.46935642     0.03600
C237        C  0.17109904  0.30075477  0.44066461     0.38200
C238        C  0.19915177  0.41359986  0.02711089     0.38200
C239        C  0.18999667  0.40972399  0.45056583     0.36600
C240        C  0.17694784  0.30682193  0.51872189     0.36600
N241        N  0.20310451  0.43515862  0.43537397    -0.38200
N242        N  0.18606205  0.29289324  0.53017975    -0.38200
N243        N  0.21789394  0.44091559  0.04102018    -0.37600
N244        N  0.17675498  0.28274307  0.42312352    -0.37600
C245        C  0.05457481  0.15967190  0.14505050    -0.04300
C246        C  0.07081521  0.17097497  0.10818960    -0.01400
C247        C  0.08380860  0.20418013  0.09768131     0.03600
C248        C  0.08173426  0.22716855  0.12459022    -0.04300
C249        C  0.06162142  0.21391167  0.16003047    -0.01400
C250        C  0.04939652  0.18101442  0.17075808     0.03600
C251        C  0.07580911  0.14896960  0.08141116     0.38200
C252        C  0.05243278  0.23366082  0.18513654     0.38200
C253        C  0.03097125  0.16894731  0.20806664     0.36600
C254        C  0.09840953  0.21358336  0.05884064     0.36600
N255        N  0.01632957  0.15956064  0.23788856    -0.38200
N256        N  0.10880941  0.21953355  0.02723208    -0.38200
N257        N  0.04509434  0.24933532  0.20533368    -0.37600
N258        N  0.08024136  0.13175145  0.06000911    -0.37600
C259        C  0.36690131  0.45440885  0.09418037    -0.04300
C260        C  0.35297944  0.47319620  0.10150535    -0.01400
C261        C  0.31688646  0.45558310  0.10169202     0.03600
C262        C  0.29489436  0.41986265  0.09192701    -0.04300
C263        C  0.30913451  0.40215100  0.07959030    -0.01400
C264        C  0.34473534  0.41899131  0.08122685     0.03600
C265        C  0.37495326  0.51023475  0.11023282     0.38200
C266        C  0.28637225  0.36567708  0.06801351     0.38200
C267        C  0.35778159  0.39884875  0.07220399     0.36600
C268        C  0.30190274  0.47374841  0.11356526     0.36600
N269        N  0.36836514  0.38289413  0.06652108    -0.38200
N270        N  0.29000626  0.48827333  0.12337126    -0.38200
N271        N  0.26819103  0.33657924  0.05874623    -0.37600
N272        N  0.39207948  0.53996344  0.11625260    -0.37600
C273        C  0.08223059  0.44734570  0.14918069    -0.04300
C274        C  0.06859171  0.41678837  0.16793802    -0.01400
C275        C  0.08291829  0.39878783  0.15816440     0.03600
C276        C  0.11270914  0.41231267  0.13197352    -0.04300
C277        C  0.12773110  0.44376700  0.11496744    -0.01400
C278        C  0.11242344  0.46100042  0.12304654     0.03600
C279        C  0.04076427  0.40409002  0.19860975     0.38200
C280        C  0.16036717  0.45987068  0.09110087     0.38200
C281        C  0.12960134  0.49418657  0.10643497     0.36600
C282        C  0.06693033  0.36611208  0.17526995     0.36600
N283        N  0.13717993  0.01479155  0.08647401    -0.38200
N284        N  0.05426988  0.34019095  0.18915697    -0.38200
N285        N  0.18663495  0.47382977  0.07232127    -0.37600
N286        N  0.52011155  0.39441499  0.22573255    -0.37600
C287        C  0.06176229  0.14811779  0.35583135    -0.04300
C288        C  0.09831962  0.17455606  0.35458951    -0.01400
C289        C  0.11261924  0.20947770  0.35064808     0.03600
C290        C  0.09097433  0.21915058  0.35035696    -0.04300
C291        C  0.05520243  0.19327757  0.34854860    -0.01400
C292        C  0.04070266  0.15774981  0.34970471     0.03600
C293        C  0.12190806  0.16675290  0.35826925     0.38200
C294        C  0.03327360  0.20356229  0.34718594     0.38200
C295        C  0.00392462  0.13177935  0.34623262     0.36600
C296        C  0.14995532  0.23589382  0.34727449     0.36600
N297        N  0.47459389  0.11419333  0.35074972    -0.38200
N298        N  0.17981139  0.25659610  0.34413651    -0.38200
N299        N  0.01576581  0.21183966  0.34633389    -0.37600
N300        N  0.14145595  0.16158998  0.36160320    -0.37600
C301        C  0.28599460  0.41353053  0.34952678    -0.04300
C302        C  0.29997701  0.39530270  0.34485853    -0.01400
C303        C  0.33465146  0.41256484  0.35117234     0.03600
C304        C  0.35530445  0.44822096  0.36286281    -0.04300
C305        C  0.34223150  0.46728221  0.36268554    -0.01400
C306        C  0.30735027  0.44964951  0.35636707     0.03600
C307        C  0.27788618  0.35832301  0.33557223     0.38200
C308        C  0.36850737  0.00658340  0.36276286     0.38200
C309        C  0.29255404  0.46804854  0.35869695     0.36600
C310        C  0.34866471  0.39326748  0.34642245     0.36600
N311        N  0.28458727  0.98667621  0.36411271    -0.38200
N312        N  0.35971276  0.37776594  0.34290611    -0.38200
N313        N  0.38726545  0.03660918  0.36413650    -0.37600
N314        N  0.26034480  0.32880460  0.32813367    -0.37600
C315        C  0.05191066  0.41718868  0.40771442    -0.04300
C316        C  0.07733545  0.42700492  0.43147345    -0.01400
C317        C  0.09675140  0.41404003  0.42370550     0.03600
C318        C  0.08923196  0.38870345  0.39402035    -0.04300
C319        C  0.06075724  0.37550946  0.37359299    -0.01400
C320        C  0.04278192  0.39019794  0.37967235     0.03600
C321        C  0.08407500  0.45051566  0.46436392     0.38200
C322        C  0.04864674  0.34542739  0.34785564     0.38200
C323        C  0.01346588  0.37584456  0.35859179     0.36600
C324        C  0.12497130  0.42789978  0.44637570     0.36600
N325        N  0.49012819  0.36589958  0.34497666    -0.38200
N326        N  0.14678394  0.43964343  0.46578198    -0.38200
N327        N  0.03880430  0.32118548  0.32762353    -0.37600
N328        N  0.08978941  0.46860125  0.49125044    -0.37600
C329        C  0.40678256  0.06506710  0.20147105    -0.04300
C330        C  0.37255937  0.04777617  0.21983706    -0.01400
C331        C  0.35633306  0.06421167  0.22503873     0.03600
C332        C  0.37454029  0.09834029  0.21335079    -0.04300
C333        C  0.40854674  0.11567039  0.19582379    -0.01400
C334        C  0.42390294  0.09867572  0.18806422     0.03600
C335        C  0.35328972  0.01252616  0.23160513     0.38200
C336        C  0.42899568  0.15197586  0.18773573     0.38200
C337        C  0.45694292  0.11615345  0.16488061     0.36600
C338        C  0.32075349  0.04597637  0.24200490     0.36600
N339        N  0.97806833  0.12723500  0.13812802    -0.38200
N340        N  0.29222068  0.03109740  0.25530048    -0.38200
N341        N  0.44728325  0.18116745  0.18159843    -0.37600
N342        N  0.33519201  0.48247629  0.23750358    -0.37600
C343        C  0.39336701  0.28577519  0.23475230    -0.04300
C344        C  0.37996785  0.30395396  0.25029980    -0.01400
C345        C  0.39679263  0.33825227  0.24000238     0.03600
C346        C  0.42737826  0.35471504  0.21458703    -0.04300
C347        C  0.44021057  0.33630225  0.19828200    -0.01400
C348        C  0.42414512  0.30255986  0.20956408     0.03600
C349        C  0.34786304  0.28682918  0.27515431     0.38200
C350        C  0.46723656  0.35042692  0.16671146     0.38200
C351        C  0.43922521  0.28495309  0.19488981     0.36600
C352        C  0.38102180  0.35557535  0.25265047     0.36600
N353        N  0.45223235  0.27179470  0.18318824    -0.38200
N354        N  0.36824402  0.36934511  0.26134667    -0.38200
N355        N  0.48819460  0.36140238  0.14093726    -0.37600
N356        N  0.32227471  0.27385777  0.29511464    -0.37600
C357        C  0.19396863  0.09035879  0.26219650    -0.04300
C358        C  0.18245344  0.11089950  0.26923307    -0.01400
C359        C  0.14711713  0.09579783  0.26837828     0.03600
C360        C  0.12263010  0.05955958  0.25966553    -0.04300
C361        C  0.13409195  0.03862698  0.25659119    -0.01400
C362        C  0.16961404  0.05415168  0.25792370     0.03600
C363        C  0.20759881  0.14813156  0.27514309     0.38200
C364        C  0.11035568  0.00139318  0.24996823     0.38200
C365        C  0.18161922  0.03309767  0.25374440     0.36600
C366        C  0.13687840  0.11846198  0.27441435     0.36600
N367        N  0.19113066  0.01622231  0.25064852    -0.38200
N368        N  0.12931899  0.13700718  0.27833804    -0.38200
N369        N  0.09193986  0.97153509  0.24528133    -0.37600
N370        N  0.22742733  0.17788588  0.27975176    -0.37600
C371        C  0.41989361  0.07715232  0.45231813    -0.04300
C372        C  0.38343500  0.05276347  0.45947055    -0.01400
C373        C  0.36269679  0.06621685  0.96713464     0.03600
C374        C  0.37781544  0.09948572  0.46602774    -0.04300
C375        C  0.41424451  0.12391792  0.45941585    -0.01400
C376        C  0.43532218  0.11282823  0.45265599     0.03600
C377        C  0.36350622  0.01554823  0.96251157     0.38200
C378        C  0.42983384  0.16054408  0.46016034     0.38200
C379        C  0.47280401  0.13812378  0.44713504     0.36600
C380        C  0.32526367  0.04351545  0.97506403     0.36600
N381        N  0.50270393  0.15844297  0.44300253    -0.38200
N382        N  0.29534639  0.02543875  0.98147450    -0.38200
N383        N  0.44210067  0.18974614  0.46083123    -0.37600
N384        N  0.34879904  0.48523071  0.96850276    -0.37600
C385        C  0.39464409  0.28866856  0.50159561    -0.04300
C386        C  0.42350545  0.31348388  0.00786476    -0.01400
C387        C  0.44391005  0.35029228  0.50410733     0.03600
C388        C  0.42234074  0.35952176  0.49832112    -0.04300
C389        C  0.38590674  0.33231558  0.49814477    -0.01400
C390        C  0.37241474  0.29748256  0.50099346     0.03600
C391        C  0.44425008  0.30236591  0.01196739     0.38200
C392        C  0.36153743  0.33900820  0.49403417     0.38200
C393        C  0.33526392  0.27021750  0.50360701     0.36600
C394        C  0.47550678  0.37427017  0.01128625     0.36600
N395        N  0.30556677  0.24869666  0.50659104    -0.38200
N396        N  0.00635560  0.39285685  0.01130433    -0.38200
N397        N  0.34152804  0.34350964  0.49049125    -0.37600
N398        N  0.46066506  0.29330462  0.01521504    -0.37600
C399        C  0.13369918  0.05331915  0.47524047    -0.04300
C400        C  0.15367221  0.04587588  0.44953488    -0.01400
C401        C  0.18773499  0.06032861  0.45635991     0.03600
C402        C  0.20215589  0.08271219  0.48869280    -0.04300
C403        C  0.17892290  0.08915775  0.01877229    -0.01400
C404        C  0.14522820  0.07490810  0.01096088     0.03600
C405        C  0.13996541  0.02516265  0.41491007     0.38200
C406        C  0.19200639  0.11142088  0.05253509     0.38200
C407        C  0.12701848  0.08735219  0.03300279     0.36600
C408        C  0.20812658  0.05249563  0.42987127     0.36600
N409        N  0.11394911  0.09882870  0.05062768    -0.38200
N410        N  0.22447416  0.04642975  0.40857430    -0.38200
N411        N  0.20070858  0.12807565  0.08050609    -0.37600
N412        N  0.12907862  0.00878555  0.38722894    -0.37600
C413        C  0.33128961  0.16758178  0.40374259    -0.04300
C414        C  0.34599941  0.15575911  0.37548216    -0.01400
C415        C  0.33439715  0.14504214  0.33903762     0.03600
C416        C  0.32451895  0.16212009  0.32242327    -0.01700
C417        C  0.31431224  0.17960239  0.34913754    -0.01400
C418        C  0.31590141  0.18066066  0.38930593     0.03600
C419        C  0.38095244  0.16787118  0.37755973     0.38200
C420        C  0.29927021  0.19392350  0.33604262     0.38200
C421        C  0.30223568  0.19598547  0.41515307     0.36600
C422        C  0.31646939  0.10841786  0.33021302     0.36600
N423        N  0.29078882  0.20810425  0.43511559    -0.38200
N424        N  0.30176553  0.07889270  0.32403769    -0.38200
N425        N  0.28680082  0.20507213  0.32591797    -0.37600
N426        N  0.40916181  0.17791411  0.37890992    -0.37600
C427        C  0.32064297  0.15922325  0.15464147    -0.04300
C428        C  0.29813588  0.16250500  0.13821713    -0.01400
C429        C  0.30079757  0.16479312  0.09790458     0.03600
C430        C  0.32468402  0.16206356  0.07229574    -0.04300
C431        C  0.35276522  0.16947019  0.08959425    -0.01400
C432        C  0.35097913  0.16869801  0.12984505     0.03600
C433        C  0.27630367  0.16968473  0.16254427     0.38200
C434        C  0.38595078  0.18378470  0.06712608     0.38200
C435        C  0.38305548  0.18454001  0.14583761     0.36600
C436        C  0.28435610  0.17731106  0.08376286     0.36600
N437        N  0.40924508  0.19854265  0.15800103    -0.38200
N438        N  0.27261316  0.18871556  0.07238146    -0.38200
N439        N  0.41266431  0.19560092  0.04966112    -0.37600
N440        N  0.25899136  0.17596431  0.18127737    -0.37600
C441        C  0.32641277  0.16102289  0.52677011     0.31100
C442        C  0.32849187  0.16438809  0.94876603     0.31100
C443        C  0.33887036  0.14174049  0.50102112    -0.05100
C444        C  0.29212497  0.14475391  0.50963764    -0.05900
C445        C  0.35065867  0.19740634  0.51030208    -0.05800
C446        C  0.34297553  0.14660098  0.96182657    -0.05100
C447        C  0.29230765  0.14360164  0.97131447    -0.05900
C448        C  0.34766960  0.19905342  0.97221654    -0.05800
C449        C  0.35423461  0.12730213  0.94513856    -0.31200
N450        N  0.36130212  0.11644500  0.97249025     0.15300
C451        C  0.34857907  0.12154122  0.50669305    -0.31200
H452        H  0.35102378  0.11581994  0.53359278     0.17300
C453        C  0.25901227  0.12134271  0.96153603    -0.30200
N454        N  0.23944610  0.10651550  0.48932726     0.14000
C455        C  0.25785567  0.11738355  0.51965107    -0.30200
C456        C  0.36477872  0.23337272  0.96528105    -0.30500
N457        N  0.38113995  0.25278647  0.49698640     0.14500
H458        H  0.36920580  0.24380435  0.93822575     0.17200
C459        C  0.36820928  0.23091351  0.52561000    -0.30500
H460        H  0.36921257  0.23859282  0.55550253     0.17200
H461        H  0.24747880  0.10533420  0.54675474     0.17200
H462        H  0.35646002  0.12044563  0.91543936     0.17200
H463        H  0.25133656  0.11675864  0.93329896     0.17200
C464        C  0.31863953  0.15565678  0.69931813     0.31100
C465        C  0.32251806  0.16084679  0.77821140     0.31100
C466        C  0.33485833  0.14036950  0.71323765    -0.05100
C467        C  0.33878542  0.19209736  0.71874678    -0.05900
C468        C  0.28372230  0.13600162  0.72514073    -0.05800
C469        C  0.33836569  0.14436788  0.75237187    -0.05100
C470        C  0.34114868  0.19529081  0.75794211    -0.05900
C471        C  0.28570057  0.13900924  0.76465878    -0.05800
C472        C  0.35580856  0.13124020  0.75697140    -0.31200
N473        N  0.35907880  0.11621102  0.72373686     0.15300
C474        C  0.34634604  0.12135905  0.69684645    -0.31200
H475        H  0.34599455  0.11232318  0.66744339     0.17300
C476        C  0.36177974  0.23073650  0.76717978    -0.30200
N477        N  0.37149888  0.24825837  0.73503876     0.14000
C478        C  0.35741524  0.22482444  0.70568379    -0.30200
C479        C  0.25193356  0.11966259  0.78181316    -0.30500
N480        N  0.22987009  0.10453336  0.75437614     0.14500
H481        H  0.24395597  0.11733200  0.81200253     0.17200
C482        C  0.24887300  0.11351870  0.71997053    -0.30500
H483        H  0.23783658  0.10483072  0.69316658     0.17200
H484        H  0.36072249  0.23127713  0.67667122     0.17200
H485        H  0.36653483  0.13304185  0.78202580     0.17200
H486        H  0.36941715  0.24286266  0.79499301     0.17200
O487        O  0.03160517  0.44242381  0.87988238    -0.74200
O488        O  0.02876160  0.44273783  0.94389894    -0.53100
C489        C  0.03584774  0.43436401  0.91021018     0.79500
O490        O  0.06091354  0.10733484  0.89199834    -0.58800
O491        O  0.01378326  0.08413029  0.86081156    -0.51900
C492        C  0.04386683  0.11014832  0.87093894     0.71500
O493        O  0.09876930  0.06074089  0.94864481    -0.73400
O494        O  0.06973733  0.01050443  0.97990116    -0.54000
C495        C  0.09743370  0.04005670  0.96888554     0.77500
O496        O  0.00099879  0.49297541  0.81474101    -0.58500
O497        O  0.45966908  0.99987413  0.82453964    -0.51700
C498        C  0.47393410  0.98626575  0.80820607     0.74100
Zr499      Zr  0.00911366  0.47253606  0.86501685     2.54700
O500        O  0.05898714  0.99034426  0.82000451    -0.79100
O501        O  0.47139272  0.41838138  0.83295317    -0.92500
Zr502      Zr  0.05917352  0.06250542  0.91804692     2.64700
O503        O  0.10188664  0.07578412  0.86354126    -0.97500
O504        O  0.10127106  0.11824766  0.94901074    -0.79500
O505        O  0.04409175  0.00559793  0.91284294    -0.82900
O506        O  0.02425280  0.02952681  0.86854708    -2.17600
O507        O  0.38778267  0.44335539  0.89780909    -0.66300
O508        O  0.41513458  0.49512279  0.87083081    -0.50900
C509        C  0.38857511  0.46365845  0.87738216     0.72500
O510        O  0.47353996  0.99859619  0.52818729    -0.59200
O511        O  0.00884564  0.48869231  0.53664753    -0.51200
C512        C  0.49573634  0.50429024  0.54793905     0.74300
O513        O  0.44421875  0.05397703  0.97662280    -0.70600
O514        O  0.44826605  0.05661706  0.91262024    -0.49300
C515        C  0.43826248  0.06103591  0.94695109     0.75700
O516        O  0.41801027  0.39946710  0.96919153    -0.65900
O517        O  0.46737402  0.42029702  0.99386504    -0.53100
C518        C  0.43571445  0.39563321  0.98761610     0.74000
Zr519      Zr  0.42376525  0.44388394  0.93784139     2.77500
O520        O  0.37936781  0.43314400  0.98914108    -0.96700
O521        O  0.38361715  0.38652777  0.90907263    -0.77500
Zr522      Zr  0.47783293  0.03540837  0.99027870     2.70100
O523        O  0.44448989  0.54101829  0.54976310    -0.78700
O524        O  0.02360439  0.09240840  0.51609580    -0.97800
Zr525      Zr  0.00983691  0.47746468  0.96910945     2.21500
Zr526      Zr  0.47479061  0.02857131  0.88540272     2.11100
O527        O  0.43928134  0.50083608  0.94443326    -2.46500
O528        O  0.45896879  0.47739878  0.98660267    -0.78500
O529        O  0.45876945  0.47206720  0.88313229    -0.70700
O530        O  0.02709413  0.03543300  0.97528659    -2.31700
O531        O  0.47352763  0.44472897  0.92182505    -2.27900
O532        O  0.00927554  0.06116784  0.93410169    -0.72500
H533        H  0.03755288  0.04274247  0.84613367     0.79500
H534        H  0.04520849  0.05167840  0.49367358     0.80600
H535        H  0.41776715  0.49802468  0.94835467     0.82800
H536        H  0.46744836  0.42170321  0.91922587     0.80400
H537        H  0.12418802  0.12581528  0.93603118     0.43500
H538        H  0.03585010  0.10764627  0.49425258     0.42400
H539        H  0.41986983  0.52271862  0.54542881     0.42100
H540        H  0.38977652  0.45565954  0.00358131     0.40000
H541        H  0.39872996  0.38217399  0.89187358     0.43200
H542        H  0.46297610  0.40075239  0.85147366     0.38000
H543        H  0.07418699  0.98879548  0.83322829     0.44100
H544        H  0.12462452  0.09185489  0.87389896     0.40500
H545        H  0.36097637  0.42987072  0.97651922     0.45400
H546        H  0.98965619  0.41461981  0.81387060     0.44100
H547        H  0.09938055  0.05402899  0.85719234     0.44300
H548        H  0.51475036  0.10384492  0.53256385     0.44600
O549        O  0.06381418  0.47909842  0.62813959    -0.74200
O550        O  0.04810429  0.46249165  0.68883348    -0.53100
C551        C  0.06340855  0.46416410  0.65565186     0.79500
O552        O  0.05494311  0.12078814  0.68052568    -0.58800
O553        O  0.01580729  0.09941599  0.63753192    -0.51900
C554        C  0.04127099  0.12444645  0.65554347     0.71500
O555        O  0.08619747  0.06465080  0.73174703    -0.73400
O556        O  0.05998547  0.00994211  0.74919404    -0.54000
C557        C  0.08649283  0.04230311  0.74664701     0.77500
O558        O  0.04698979  0.54935027  0.57481281    -0.58500
O559        O  0.50903120  0.05667993  0.57476668    -0.51700
C560        C  0.52191954  0.04115653  0.56065859     0.74100
Zr561      Zr  0.04428884  0.51362684  0.61840793     2.54700
O562        O  0.10436243  0.05508689  0.62179731    -0.79100
O563        O  0.55512144  0.49009392  0.56327220    -0.92500
Zr564      Zr  0.04832761  0.07247795  0.70648051     2.64700
O565        O  0.10760269  0.12380281  0.69059203    -0.97500
O566        O  0.04918024  0.10162439  0.76777559    -0.79500
O567        O  0.05239327  0.02688756  0.68220693    -0.82900
O568        O  0.03793242  0.05659079  0.64257508    -2.17600
O569        O  0.40274351  0.44819825  0.62073834    -0.66300
O570        O  0.42613326  0.50383857  0.61057257    -0.50900
C571        C  0.40159999  0.47086576  0.60830121     0.72500
O572        O  0.43642966  0.95625878  0.76137350    -0.59200
O573        O  0.97021986  0.44265912  0.76622891    -0.51200
C574        C  0.45125292  0.45634102  0.78522570     0.74300
O575        O  0.42305808  0.03301269  0.72308192    -0.70600
O576        O  0.44463188  0.05547905  0.66462649    -0.49300
C577        C  0.42584219  0.05006502  0.69626397     0.75700
O578        O  0.42989246  0.39651038  0.68203031    -0.65900
O579        O  0.47394067  0.41590925  0.71726180    -0.53100
C580        C  0.44535630  0.39164433  0.70303998     0.74000
Zr581      Zr  0.43968338  0.44503668  0.65403185     2.77500
O582        O  0.37988162  0.39892814  0.67655627    -0.96700
O583        O  0.43983724  0.41512359  0.59384346    -0.77500
Zr584      Zr  0.45171895  0.00909404  0.73811248     2.70100
O585        O  0.39140167  0.48067380  0.77782269    -0.78700
O586        O  0.96936521  0.04813951  0.79329395    -0.97800
Zr587      Zr  0.01031153  0.47767097  0.71443299     2.21500
Zr588      Zr  0.48118536  0.03932664  0.63775767     2.11100
O589        O  0.43548876  0.49074793  0.67910494    -2.46500
O590        O  0.45345565  0.46500423  0.71546066    -0.78500
O591        O  0.48448338  0.49351505  0.62023987    -0.70700
O592        O  0.00584349  0.02349722  0.74289865    -2.31700
O593        O  0.49702603  0.46249466  0.65523628    -2.27900
O594        O  0.99195485  0.05553616  0.70276857    -0.72500
H595        H  0.05511968  0.07780825  0.62951665     0.79500
H596        H  0.01276136  0.03074680  0.76815452     0.80600
H597        H  0.41263510  0.48437517  0.67862365     0.82800
H598        H  0.49752934  0.44321513  0.64637634     0.80400
H599        H  0.05372886  0.09141338  0.78570253     0.43500
H600        H  0.98012293  0.07076618  0.78256989     0.42400
H601        H  0.37534660  0.46171214  0.76029328     0.42100
H602        H  0.36963046  0.41100236  0.68689982     0.40000
H603        H  0.44689925  0.40107131  0.59934006     0.43200
H604        H  0.54164232  0.46492856  0.56676426     0.38000
H605        H  0.10687997  0.07581808  0.63413677     0.44100
H606        H  0.11246887  0.14056312  0.71232998     0.40500
H607        H  0.36841937  0.38616010  0.65328251     0.45400
H608        H  0.08488272  0.50642905  0.55674391     0.44100
H609        H  0.12295889  0.11730517  0.69191560     0.44300
H610        H  0.44920086  0.04536584  0.80660930     0.44600
C611        C  0.16088050  0.34721858  0.82358431     0.31100
C612        C  0.15960454  0.34369652  0.90212707     0.31100
C613        C  0.14213637  0.35990710  0.85126231    -0.05100
C614        C  0.14134483  0.31031269  0.83906575    -0.05900
C615        C  0.19575322  0.36751771  0.83997923    -0.05800
C616        C  0.14143204  0.35771403  0.89043247    -0.05100
C617        C  0.14066728  0.30872263  0.87851487    -0.05900
C618        C  0.19499912  0.36560511  0.87882566    -0.05800
C619        C  0.11958394  0.36486151  0.90941175    -0.31200
N620        N  0.10831001  0.37333532  0.88404315     0.15300
C621        C  0.12129098  0.36959854  0.84854375    -0.31200
H622        H  0.11573212  0.37341081  0.82249160     0.17300
C623        C  0.11892951  0.27401331  0.88644899    -0.30200
N624        N  0.10819972  0.25457152  0.85373133     0.14000
C625        C  0.12061423  0.27615545  0.82488676    -0.30200
C626        C  0.22870564  0.38569385  0.88706192    -0.30500
N627        N  0.24968293  0.39987071  0.85469330     0.14500
H628        H  0.23750998  0.38907845  0.91434001     0.17200
C629        C  0.23009626  0.38888728  0.82563799    -0.30500
H630        H  0.24015801  0.39521351  0.79627990     0.17200
H631        H  0.11519804  0.26749495  0.79572900     0.17200
H632        H  0.11176805  0.36308361  0.93962521     0.17200
H633        H  0.11131804  0.26324006  0.91404658     0.17200
C634        C  0.16714802  0.35251824  0.57345273     0.31100
C635        C  0.17053515  0.35679148  0.65215501     0.31100
C636        C  0.15520063  0.37264541  0.59868944    -0.05100
C637        C  0.14403190  0.31758663  0.59419423    -0.05900
C638        C  0.20299395  0.36988396  0.58684722    -0.05800
C639        C  0.15663920  0.37459070  0.63818458    -0.05100
C640        C  0.14623857  0.32030185  0.63337030    -0.05900
C641        C  0.20467316  0.37205450  0.62606937    -0.05800
C642        C  0.14040816  0.38910337  0.65481007    -0.31200
N643        N  0.13080792  0.39741766  0.62733205     0.15300
C644        C  0.13885872  0.38669613  0.59318180    -0.31200
H645        H  0.13214677  0.38797751  0.56645283     0.17300
C646        C  0.12323006  0.28758846  0.64672536    -0.30200
N647        N  0.10696006  0.26433507  0.61779960     0.14000
C648        C  0.11885926  0.28247363  0.58561840    -0.30200
C649        C  0.23917949  0.39077668  0.63136301    -0.30500
N650        N  0.25824077  0.39975735  0.59692227     0.14500
H651        H  0.24980629  0.39802112  0.65831178     0.17200
C652        C  0.23653761  0.38714218  0.56957712    -0.30500
H653        H  0.24469625  0.39107490  0.53953158     0.17200
H654        H  0.10970603  0.27119411  0.55809589     0.17200
H655        H  0.13477247  0.39242428  0.68487508     0.17200
H656        H  0.11900831  0.28093718  0.67580885     0.17200
C657        C  0.17301388  0.35760176  0.69643930    -0.04300
C658        C  0.17582597  0.33401506  0.71175087    -0.01400
C659        C  0.17264474  0.33122514  0.75194962     0.03600
C660        C  0.16571192  0.35134091  0.77876744    -0.04300
C661        C  0.17344415  0.38114543  0.76307502    -0.01400
C662        C  0.17779520  0.38449751  0.72273294     0.03600
C663        C  0.18594879  0.31511784  0.68637399     0.38200
C664        C  0.18215857  0.41101238  0.78773929     0.38200
C665        C  0.19408438  0.41833401  0.70855357     0.36600
C666        C  0.18170359  0.31119224  0.76505957     0.36600
N667        N  0.20760432  0.44553369  0.69738034    -0.38200
N668        N  0.18945870  0.29541334  0.77489791    -0.38200
N669        N  0.18964622  0.43530426  0.80690608    -0.37600
N670        N  0.19405753  0.29993489  0.66647469    -0.37600
C671        C  0.16292284  0.34579810  0.94643543    -0.04300
C672        C  0.16420135  0.32198679  0.96391900    -0.01400
C673        C  0.16568496  0.32393613  0.00415131     0.03600
C674        C  0.16747121  0.35139624  0.52861040    -0.04300
C675        C  0.17768216  0.37943574  0.00877569    -0.01400
C676        C  0.17452844  0.37694966  0.96902139     0.03600
C677        C  0.17133664  0.30008718  0.94039398     0.38200
C678        C  0.19757097  0.41441563  0.52806914     0.38200
C679        C  0.18908164  0.40851176  0.95032323     0.36600
C680        C  0.17299530  0.30318602  0.01916251     0.36600
N681        N  0.20175062  0.43389615  0.93523650    -0.38200
N682        N  0.17992574  0.28745284  0.03096070    -0.38200
N683        N  0.21508185  0.44172166  0.54252055    -0.37600
N684        N  0.17769272  0.28277115  0.92233134    -0.37600
C685        C  0.05667601  0.16002978  0.64498138    -0.04300
C686        C  0.07499703  0.17134026  0.60877153    -0.01400
C687        C  0.08900002  0.20467763  0.59751265     0.03600
C688        C  0.08442644  0.22702732  0.62245785    -0.04300
C689        C  0.06210091  0.21354293  0.65657077    -0.01400
C690        C  0.05006495  0.18120195  0.66882488     0.03600
C691        C  0.08054901  0.14894360  0.58355244     0.38200
C692        C  0.05060544  0.23265793  0.67840453     0.38200
C693        C  0.03065740  0.16960916  0.70582006     0.36600
C694        C  0.10754606  0.21512255  0.56010061     0.36600
N695        N  0.01537474  0.16044779  0.73543762    -0.38200
N696        N  0.12131038  0.22190605  0.52956649    -0.38200
N697        N  0.04129886  0.24791559  0.69550544    -0.37600
N698        N  0.08492872  0.13099130  0.56357478    -0.37600
C699        C  0.36776170  0.45671028  0.59407826    -0.04300
C700        C  0.35252108  0.47417624  0.60267601    -0.01400
C701        C  0.31637745  0.45558065  0.60183497     0.03600
C702        C  0.29551496  0.42004332  0.59102433    -0.04300
C703        C  0.31119540  0.40391138  0.57714412    -0.01400
C704        C  0.34702164  0.42193736  0.57891721     0.03600
C705        C  0.37321932  0.51083534  0.61328943     0.38200
C706        C  0.28992717  0.36807926  0.56302905     0.38200
C707        C  0.36221755  0.40400320  0.56698410     0.36600
C708        C  0.30014387  0.47261021  0.61280751     0.36600
N709        N  0.37513268  0.39036332  0.55859880    -0.38200
N710        N  0.28704340  0.48608057  0.62145702    -0.38200
N711        N  0.27298486  0.33952205  0.55155298    -0.37600
N712        N  0.38918061  0.54029732  0.62077282    -0.37600
C713        C  0.08120263  0.44718753  0.64871511    -0.04300
C714        C  0.06806403  0.41688788  0.66786746    -0.01400
C715        C  0.08314714  0.39946624  0.65875618     0.03600
C716        C  0.11376045  0.41379766  0.63376568    -0.04300
C717        C  0.12843415  0.44522208  0.61678708    -0.01400
C718        C  0.11181750  0.46125872  0.62323271     0.03600
C719        C  0.03996564  0.40383098  0.69826145     0.38200
C720        C  0.16183578  0.46253067  0.59439837     0.38200
C721        C  0.12783092  0.49358420  0.60527810     0.36600
C722        C  0.06657787  0.36607765  0.67443178     0.36600
N723        N  0.14000627  0.01969853  0.59550586    -0.38200
N724        N  0.05325992  0.33932776  0.68668360    -0.38200
N725        N  0.18871682  0.47784017  0.57684076    -0.37600
N726        N  0.51859098  0.39488898  0.72851072    -0.37600
C727        C  0.06040348  0.14640504  0.85917478    -0.04300
C728        C  0.09724787  0.17181958  0.85607721    -0.01400
C729        C  0.11276913  0.20685361  0.85041693     0.03600
C730        C  0.09221268  0.21787983  0.85035696    -0.04300
C731        C  0.05596714  0.19305247  0.85164922    -0.01400
C732        C  0.04007148  0.15732215  0.85468159     0.03600
C733        C  0.11988783  0.16286397  0.85999081     0.38200
C734        C  0.03515453  0.20485294  0.85157631     0.38200
C735        C  0.00270704  0.13249063  0.85492687     0.36600
C736        C  0.15027880  0.23206004  0.84548686     0.36600
N737        N  0.47350679  0.11297934  0.85178341    -0.38200
N738        N  0.18024204  0.25173150  0.84121900    -0.38200
N739        N  0.01878387  0.21461521  0.85174080    -0.37600
N740        N  0.13840361  0.15644333  0.86365530    -0.37600
C741        C  0.28628789  0.41767439  0.85135699    -0.04300
C742        C  0.29892416  0.39817906  0.84490422    -0.01400
C743        C  0.33344396  0.41382294  0.85036732     0.03600
C744        C  0.35566901  0.44946345  0.86188652    -0.04300
C745        C  0.34385738  0.46984109  0.86335903    -0.01400
C746        C  0.30876386  0.45358020  0.85945969     0.03600
C747        C  0.27530626  0.36133018  0.83527199     0.38200
C748        C  0.36816347  0.00468063  0.86161997     0.38200
C749        C  0.29508519  0.47320427  0.86605740     0.36600
C750        C  0.34540187  0.39268622  0.84507749     0.36600
N751        N  0.28434110  0.98416579  0.85995910    -0.38200
N752        N  0.35414908  0.37513385  0.84107527    -0.38200
N753        N  0.38635977  0.03470119  0.86410651    -0.37600
N754        N  0.25621812  0.33194784  0.82768618    -0.37600
C755        C  0.05123099  0.41528871  0.90630173    -0.04300
C756        C  0.07594853  0.42430653  0.93065388    -0.01400
C757        C  0.09461837  0.41054535  0.92348483     0.03600
C758        C  0.08739545  0.38565720  0.89331447    -0.04300
C759        C  0.05952923  0.37327743  0.87221804    -0.01400
C760        C  0.04194900  0.38835734  0.87819042     0.03600
C761        C  0.08271292  0.44785731  0.96351858     0.38200
C762        C  0.04765861  0.34369010  0.84575366     0.38200
C763        C  0.01275936  0.37436881  0.85705230     0.36600
C764        C  0.12162828  0.42298917  0.94743587     0.36600
N765        N  0.49561280  0.36991165  0.83726036    -0.38200
N766        N  0.14235711  0.43338469  0.96791757    -0.38200
N767        N  0.03800725  0.31990289  0.82483133    -0.37600
N768        N  0.08830770  0.46604747  0.99028760    -0.37600
C769        C  0.40742638  0.06607854  0.70261620    -0.04300
C770        C  0.37344625  0.04854397  0.72171103    -0.01400
C771        C  0.35698620  0.06473788  0.72772236     0.03600
C772        C  0.37534336  0.09935325  0.71769827    -0.04300
C773        C  0.40970492  0.11742618  0.70118901    -0.01400
C774        C  0.42442730  0.10004061  0.69038215     0.03600
C775        C  0.35467454  0.01333901  0.73338280     0.38200
C776        C  0.43095543  0.15462624  0.69774383     0.38200
C777        C  0.45573346  0.11685665  0.66425486     0.36600
C778        C  0.32119664  0.04589500  0.74408241     0.36600
N779        N  0.97932355  0.12895609  0.63748381    -0.38200
N780        N  0.29249743  0.03049157  0.75690549    -0.38200
N781        N  0.44920868  0.18451147  0.69606518    -0.37600
N782        N  0.33678573  0.48549950  0.73383382    -0.37600
C783        C  0.39237220  0.28533066  0.73115283    -0.04300
C784        C  0.37920747  0.30366508  0.74696150    -0.01400
C785        C  0.39680736  0.33848569  0.73789708     0.03600
C786        C  0.42770724  0.35530520  0.71293802    -0.04300
C787        C  0.44013845  0.33663291  0.69592613    -0.01400
C788        C  0.42320116  0.30220551  0.70592221     0.03600
C789        C  0.34620011  0.28590136  0.77022212     0.38200
C790        C  0.46796970  0.35149137  0.66522426     0.38200
C791        C  0.43718324  0.28384038  0.68963312     0.36600
C792        C  0.38174280  0.35632763  0.75154650     0.36600
N793        N  0.44882100  0.26961423  0.67653704    -0.38200
N794        N  0.36991922  0.37094233  0.76091681    -0.38200
N795        N  0.48965187  0.36309117  0.64016639    -0.37600
N796        N  0.31969946  0.27195047  0.78857793    -0.37600
C797        C  0.19295172  0.08746681  0.76011899    -0.04300
C798        C  0.18085657  0.10749163  0.76831855    -0.01400
C799        C  0.14531894  0.09194555  0.76820859     0.03600
C800        C  0.12112847  0.05586702  0.75869169    -0.04300
C801        C  0.13316195  0.03537657  0.75385054    -0.01400
C802        C  0.16902271  0.05134842  0.75372546     0.03600
C803        C  0.20570950  0.14485064  0.77337167     0.38200
C804        C  0.10935439  0.99807578  0.74809279     0.38200
C805        C  0.18190068  0.03104549  0.74500253     0.36600
C806        C  0.13433971  0.11395786  0.77611013     0.36600
N807        N  0.19235850  0.01499496  0.73771844    -0.38200
N808        N  0.12585950  0.13175225  0.78143286    -0.38200
N809        N  0.09079350  0.96814423  0.74445174    -0.37600
N810        N  0.22539417  0.17472789  0.77683031    -0.37600
C811        C  0.41815789  0.07499538  0.95299743    -0.04300
C812        C  0.38158951  0.05256856  0.96080971    -0.01400
C813        C  0.36246460  0.06397870  0.46618360     0.03600
C814        C  0.38023045  0.10218224  0.96588690    -0.04300
C815        C  0.41673959  0.12454435  0.95860969    -0.01400
C816        C  0.43567519  0.11103572  0.95227958     0.03600
C817        C  0.36749943  0.01610101  0.46001071     0.38200
C818        C  0.43477075  0.16163361  0.95871746     0.38200
C819        C  0.47330460  0.13427126  0.94662652     0.36600
C820        C  0.32510532  0.03914179  0.47323324     0.36600
N821        N  0.50334027  0.15262620  0.94249822    -0.38200
N822        N  0.29526177  0.01913727  0.47889199    -0.38200
N823        N  0.44923675  0.19128767  0.95897337    -0.37600
N824        N  0.34883211  0.48617685  0.47190260    -0.37600
C825        C  0.38809863  0.28824205  0.00363827    -0.04300
C826        C  0.43009422  0.31495591  0.50452609    -0.01400
C827        C  0.43881673  0.34908819  0.00664974     0.03600
C828        C  0.41865344  0.35947516  0.99944656    -0.04300
C829        C  0.38201097  0.33345562  0.99891234    -0.01400
C830        C  0.36707005  0.29828881  0.00192836     0.03600
C831        C  0.45235475  0.30526421  0.50703087     0.38200
C832        C  0.35910281  0.34182493  0.99386099     0.38200
C833        C  0.32978926  0.27194060  0.00307658     0.36600
C834        C  0.48046118  0.37644054  0.50880731     0.36600
N835        N  0.29999375  0.25104966  0.00462093    -0.38200
N836        N  0.00494992  0.39736076  0.52336407    -0.38200
N837        N  0.34062758  0.34812377  0.98952147    -0.37600
N838        N  0.47007686  0.29745774  0.50899550    -0.37600
C839        C  0.13086570  0.05150272  0.97965881    -0.04300
C840        C  0.15014255  0.04182812  0.95647744    -0.01400
C841        C  0.18408909  0.05654011  0.96395327     0.03600
C842        C  0.19957919  0.08221312  0.99346913    -0.04300
C843        C  0.18037245  0.08640482  0.51647925    -0.01400
C844        C  0.14702839  0.07331997  0.50878126     0.03600
C845        C  0.13635241  0.01915111  0.92299111     0.38200
C846        C  0.19197964  0.10434239  0.55276280     0.38200
C847        C  0.12838528  0.08403148  0.53355896     0.36600
C848        C  0.20326704  0.04538438  0.94117900     0.36600
N849        N  0.11529298  0.09443625  0.55357367    -0.38200
N850        N  0.21834771  0.03619654  0.92304401    -0.38200
N851        N  0.19977785  0.11746386  0.58253965    -0.37600
N852        N  0.12573340  0.00138215  0.89600040    -0.37600
C853        C  0.32860872  0.16692670  0.90471820    -0.04300
C854        C  0.34547765  0.15756290  0.87634940    -0.01400
C855        C  0.33421298  0.14663308  0.83975767     0.03600
C856        C  0.32366587  0.16305114  0.82304435    -0.01700
C857        C  0.31168938  0.17894319  0.84993504    -0.01400
C858        C  0.31177564  0.17851308  0.89031990     0.03600
C859        C  0.38128891  0.17262024  0.87880900     0.38200
C860        C  0.29672375  0.19325920  0.83665923     0.38200
C861        C  0.29503863  0.19060780  0.91649374     0.36600
C862        C  0.31567261  0.10982330  0.83174100     0.36600
N863        N  0.28114057  0.19990804  0.93710717    -0.38200
N864        N  0.30047685  0.08021655  0.82577196    -0.38200
N865        N  0.28444976  0.20454145  0.82634582    -0.37600
N866        N  0.41010792  0.18501537  0.88077141    -0.37600
C867        C  0.32010273  0.15706093  0.65441129    -0.04300
C868        C  0.29752098  0.16015857  0.63781501    -0.01400
C869        C  0.30036358  0.16284568  0.59752792     0.03600
C870        C  0.32486291  0.16111132  0.57175899    -0.04300
C871        C  0.35223776  0.16711979  0.58924849    -0.01400
C872        C  0.35023855  0.16594369  0.62952579     0.03600
C873        C  0.27496472  0.16642066  0.66213174     0.38200
C874        C  0.38494173  0.17947996  0.56671401     0.38200
C875        C  0.38196118  0.17995521  0.64539571     0.36600
C876        C  0.28286700  0.17439372  0.58382145     0.36600
N877        N  0.40777478  0.19196512  0.65751066    -0.38200
N878        N  0.26980969  0.18470250  0.57308279    -0.38200
N879        N  0.41130474  0.18959617  0.54926548    -0.37600
N880        N  0.25704931  0.17189932  0.68091996    -0.37600
C881        C  0.32528920  0.66135463  0.02945775     0.31100
C882        C  0.33141525  0.66820096  0.45005431     0.31100
C883        C  0.33892173  0.64334180  0.00309227    -0.05100
C884        C  0.29053017  0.64371146  0.01288484    -0.05900
C885        C  0.34786996  0.69770941  0.01329728    -0.05800
C886        C  0.34155742  0.64652410  0.46327726    -0.05100
C887        C  0.29531544  0.65087688  0.47236470    -0.05900
C888        C  0.35346895  0.70254976  0.47335972    -0.05800
C889        C  0.35137403  0.62599207  0.44672734    -0.31200
N890        N  0.35700980  0.61389470  0.47419946     0.15300
C891        C  0.34840892  0.62281654  0.00818194    -0.31200
H892        H  0.35030877  0.61633713  0.03491432     0.17300
C893        C  0.26251986  0.62772370  0.46128698    -0.30200
N894        N  0.23719254  0.60656407  0.99483253     0.14000
C895        C  0.25617416  0.61796947  0.02467653    -0.30200
C896        C  0.37202124  0.73712451  0.46655843    -0.30500
N897        N  0.37731538  0.75292125  0.00039042     0.14500
H898        H  0.37668207  0.74782590  0.43961102     0.17200
C899        C  0.36525107  0.73111350  0.02880305    -0.30500
H900        H  0.36716583  0.73880185  0.05867347     0.17200
H901        H  0.24591139  0.60749507  0.05261729     0.17200
H902        H  0.35454263  0.61992800  0.41697046     0.17200
H903        H  0.25573541  0.62302795  0.43258455     0.17200
C904        C  0.31874218  0.65572978  0.20139691     0.31100
C905        C  0.32362392  0.66190127  0.28009269     0.31100
C906        C  0.33537771  0.64086446  0.21526298    -0.05100
C907        C  0.33880299  0.69224855  0.22035429    -0.05900
C908        C  0.28407963  0.63624596  0.22770912    -0.05800
C909        C  0.33946546  0.64542553  0.25428100    -0.05100
C910        C  0.34172473  0.69594463  0.25941875    -0.05900
C911        C  0.28661617  0.63968329  0.26715109    -0.05800
C912        C  0.35732468  0.63271967  0.25875950    -0.31200
N913        N  0.36017585  0.61728783  0.22563094     0.15300
C914        C  0.34667662  0.62169254  0.19896595    -0.31200
H915        H  0.34562710  0.61198530  0.16976355     0.17300
C916        C  0.36221565  0.73139679  0.26822803    -0.30200
N917        N  0.37110463  0.74836178  0.23595199     0.14000
C918        C  0.35680901  0.72467061  0.20691013    -0.30200
C919        C  0.25313000  0.62055318  0.28494629    -0.30500
N920        N  0.23062418  0.60519035  0.25799104     0.14500
H921        H  0.24565059  0.61868887  0.31523882     0.17200
C922        C  0.24909741  0.61401336  0.22323673    -0.30500
H923        H  0.23765557  0.60556565  0.19669619     0.17200
H924        H  0.35974408  0.73078444  0.17783877     0.17200
H925        H  0.36838867  0.63489110  0.28370609     0.17200
H926        H  0.37044982  0.74393352  0.29575349     0.17200
O927        O  0.03522559  0.94691181  0.37803068    -0.74200
O928        O  0.03120785  0.94534303  0.44190618    -0.53100
C929        C  0.03932732  0.93827379  0.40798769     0.79500
O930        O  0.06434101  0.60960601  0.38873711    -0.58800
O931        O  0.01706509  0.58592174  0.35761345    -0.51900
C932        C  0.04723038  0.61199957  0.36733341     0.71500
O933        O  0.10169361  0.56282726  0.44560362    -0.73400
O934        O  0.07214467  0.51361836  0.47887420    -0.54000
C935        C  0.10014591  0.54241974  0.46650030     0.77500
O936        O  0.00174224  0.99577394  0.31405437    -0.58500
O937        O  0.45704724  0.49873382  0.32784786    -0.51700
C938        C  0.47161002  0.48552203  0.31098000     0.74100
Zr939      Zr  0.00986957  0.97425010  0.36343247     2.54700
O940        O  0.05411040  0.48244486  0.31842727    -0.79100
O941        O  0.47032540  0.91855823  0.33264630    -0.92500
Zr942      Zr  0.06161318  0.56521449  0.41717133     2.64700
O943        O  0.10635657  0.58194697  0.36404351    -0.97500
O944        O  0.10094326  0.61931801  0.45238279    -0.79500
O945        O  0.04523806  0.50779312  0.41296565    -0.82900
O946        O  0.02602628  0.53117887  0.36833051    -2.17600
O947        O  0.38948323  0.94470374  0.39814784    -0.66300
O948        O  0.41631617  0.99538571  0.36896988    -0.50900
C949        C  0.38992345  0.96414416  0.37667109     0.72500
O950        O  0.46764173  0.49331479  0.03045303    -0.59200
O951        O  0.00487290  0.98268005  0.03589910    -0.51200
C952        C  0.49575473  0.00264831  0.04465684     0.74300
O953        O  0.44277762  0.55442316  0.47976070    -0.70600
O954        O  0.44710649  0.55745762  0.41576585    -0.49300
C955        C  0.43690095  0.56162116  0.45014256     0.75700
O956        O  0.42179220  0.90279725  0.47047722    -0.65900
O957        O  0.47266431  0.92363300  0.49130800    -0.53100
C958        C  0.44060742  0.89889655  0.48677409     0.74000
Zr959      Zr  0.42644059  0.94613824  0.43751643     2.77500
O960        O  0.37969382  0.93295793  0.48670081    -0.96700
O961        O  0.38991503  0.88821724  0.40830964    -0.77500
Zr962      Zr  0.47655198  0.53607222  0.49339974     2.70100
O963        O  0.44597247  0.04025979  0.04677242    -0.78700
O964        O  0.02096933  0.59101120  0.01669702    -0.97800
Zr965      Zr  0.01146763  0.97940693  0.46752279     2.21500
Zr966      Zr  0.47314295  0.52888948  0.38820367     2.11100
O967        O  0.44256775  0.00343937  0.44268223    -2.46500
O968        O  0.46286146  0.98093416  0.48509368    -0.78500
O969        O  0.45973877  0.97286215  0.38126429    -0.70700
O970        O  0.02999454  0.53964297  0.47523554    -2.31700
O971        O  0.47605538  0.94715026  0.42015757    -2.27900
O972        O  0.01242206  0.56505297  0.43252316    -0.72500
H973        H  0.03932667  0.54372924  0.34553486     0.79500
H974        H  0.04374416  0.55011917  0.99475944     0.80600
H975        H  0.42132749  0.00113977  0.44721750     0.82800
H976        H  0.46992239  0.92411341  0.41798550     0.80400
H977        H  0.12355146  0.63091512  0.43655359     0.43500
H978        H  0.03678750  0.60448013  0.99447270     0.42400
H979        H  0.42145890  0.02199547  0.04204882     0.42100
H980        H  0.38410685  0.95549489  0.49443315     0.40000
H981        H  0.40634075  0.88367740  0.39538995     0.43200
H982        H  0.46271102  0.90146503  0.35151192     0.38000
H983        H  0.07506097  0.49574633  0.33219256     0.44100
H984        H  0.12765363  0.59137239  0.37576864     0.40500
H985        H  0.35863908  0.91985824  0.47314272     0.45400
H986        H  0.98612939  0.91638788  0.31100582     0.44100
H987        H  0.09998750  0.55975658  0.35121205     0.44300
H988        H  0.51102023  0.60536702  0.02143074     0.44600
O989        O  0.06211556  0.97642573  0.12774870    -0.74200
O990        O  0.04713043  0.96092756  0.18882421    -0.53100
C991        C  0.06194163  0.96191510  0.15541386     0.79500
O992        O  0.05538301  0.62019342  0.18069385    -0.58800
O993        O  0.01694403  0.59845251  0.13676611    -0.51900
C994        C  0.04195926  0.62365419  0.15528675     0.71500
O995        O  0.08802782  0.56540099  0.23157678    -0.73400
O996        O  0.06158464  0.51122031  0.25070291    -0.54000
C997        C  0.08813247  0.54346793  0.24762168     0.77500
O998        O  0.04605513  0.04447289  0.07086226    -0.58500
O999        O  0.50379510  0.55170400  0.07630964    -0.51700
C1000       C  0.51608940  0.53556665  0.06282213     0.74100
Zr1001     Zr  0.04291483  0.01066975  0.11726811     2.54700
O1002       O  0.10586175  0.55723400  0.11578834    -0.79100
O1003       O  0.55361756  0.98585796  0.05954008    -0.92500
Zr1004     Zr  0.05012228  0.57229764  0.20508982     2.64700
O1005       O  0.10970897  0.62137764  0.18510945    -0.97500
O1006       O  0.05330672  0.60344976  0.26549503    -0.79500
O1007       O  0.05443069  0.52683982  0.18126281    -0.82900
O1008       O  0.03880973  0.55583614  0.14147764    -2.17600
O1009       O  0.40436756  0.94633087  0.11647650    -0.66300
O1010       O  0.42688599  0.00180250  0.10748641    -0.50900
C1011       C  0.40260565  0.96876033  0.10473833     0.72500
O1012       O  0.43370771  0.45493961  0.26439912    -0.59200
O1013       O  0.96973961  0.94385715  0.26716595    -0.51200
C1014       C  0.45255141  0.95571674  0.28236223     0.74300
O1015       O  0.42131861  0.53119113  0.22490163    -0.70600
O1016       O  0.44343028  0.55382244  0.16660509    -0.49300
C1017       C  0.42437561  0.54840913  0.19800169     0.75700
O1018       O  0.43038618  0.89512853  0.17947531    -0.65900
O1019       O  0.47459425  0.91457313  0.21446475    -0.53100
C1020       C  0.44582817  0.89041256  0.20060204     0.74000
Zr1021     Zr  0.44057913  0.94344041  0.15111710     2.77500
O1022       O  0.38108551  0.89879275  0.17632296    -0.96700
O1023       O  0.43922022  0.91095495  0.09245779    -0.77500
Zr1024     Zr  0.45106762  0.50819841  0.24046602     2.70100
O1025       O  0.39750484  0.98504400  0.28157733    -0.78700
O1026       O  0.97293564  0.54868943  0.29174039    -0.97800
Zr1027     Zr  0.01011163  0.97744841  0.21465754     2.21500
Zr1028     Zr  0.47936488  0.53685539  0.14030756     2.11100
O1029       O  0.43664200  0.98927213  0.17635145    -2.46500
O1030       O  0.45476331  0.96373877  0.21242773    -0.78500
O1031       O  0.48498673  0.99160049  0.11676387    -0.70700
O1032       O  0.00828063  0.52401161  0.24286570    -2.31700
O1033       O  0.49780904  0.96066687  0.15183597    -2.27900
O1034       O  0.99327847  0.55491226  0.20250732    -0.72500
H1035       H  0.05557653  0.57676199  0.12779262     0.79500
H1036       H  0.01552867  0.53174493  0.26796426     0.80600
H1037       H  0.41369962  0.98269745  0.17578289     0.82800
H1038       H  0.49811402  0.94125657  0.14304620     0.80400
H1039       H  0.05620558  0.59225506  0.28396563     0.43500
H1040       H  0.98420958  0.57111720  0.28022838     0.42400
H1041       H  0.38018674  0.96186411  0.27009744     0.42100
H1042       H  0.37555487  0.91111631  0.19664257     0.40000
H1043       H  0.44775357  0.89831574  0.09830288     0.43200
H1044       H  0.54134922  0.96116858  0.06450339     0.38000
H1045       H  0.11371653  0.55277514  0.13642372     0.44100
H1046       H  0.12405883  0.61348617  0.18532999     0.40500
H1047       H  0.36632276  0.89284093  0.15626270     0.45400
H1048       H  0.07990631  0.99776137  0.05641048     0.44100
H1049       H  0.11011685  0.62342927  0.15781181     0.44300
H1050       H  0.45442264  0.54798591  0.30839570     0.44600
C1051       C  0.16245417  0.84825540  0.32295071     0.31100
C1052       C  0.16083277  0.84458795  0.40170807     0.31100
C1053       C  0.14448270  0.86168807  0.35048620    -0.05100
C1054       C  0.14210755  0.81129073  0.33861421    -0.05900
C1055       C  0.19712839  0.86760080  0.33929226    -0.05800
C1056       C  0.14328869  0.85927961  0.38967660    -0.05100
C1057       C  0.14137768  0.80959617  0.37812956    -0.05900
C1058       C  0.19635587  0.86576547  0.37822508    -0.05800
C1059       C  0.12134170  0.86663234  0.40808075    -0.31200
N1060       N  0.11088798  0.87572922  0.38231644     0.15300
C1061       C  0.12429528  0.87192906  0.34718702    -0.31200
H1062       H  0.11969721  0.87626256  0.32083097     0.17300
C1063       C  0.11973171  0.77488019  0.38592492    -0.30200
N1064       N  0.10860820  0.75557445  0.35313976     0.14000
C1065       C  0.12116633  0.77725946  0.32438467    -0.30200
C1066       C  0.23013690  0.88462617  0.38594581    -0.30500
N1067       N  0.25096118  0.89778267  0.35317538     0.14500
H1068       H  0.23904088  0.88803872  0.41316420     0.17200
C1069       C  0.23132535  0.88754216  0.32444278    -0.30500
H1070       H  0.24123775  0.89356137  0.29499682     0.17200
H1071       H  0.11599508  0.76872849  0.29514889     0.17200
H1072       H  0.11295826  0.86460256  0.43816745     0.17200
H1073       H  0.11275068  0.76404500  0.41337630     0.17200
C1074       C  0.16706459  0.85112386  0.07297912     0.31100
C1075       C  0.17174481  0.85774649  0.15165874     0.31100
C1076       C  0.15429267  0.87074686  0.09764378    -0.05100
C1077       C  0.14498856  0.81689297  0.09482169    -0.05900
C1078       C  0.20341657  0.87011183  0.08606817    -0.05800
C1079       C  0.15656903  0.87408482  0.13711841    -0.05100
C1080       C  0.14798835  0.82073553  0.13387461    -0.05900
C1081       C  0.20571244  0.87352436  0.12526299    -0.05800
C1082       C  0.14020065  0.88856047  0.15313086    -0.31200
N1083       N  0.12912090  0.89495975  0.12534617     0.15300
C1084       C  0.13679549  0.88340031  0.09158220    -0.31200
H1085       H  0.12928499  0.88333317  0.06473493     0.17300
C1086       C  0.12471573  0.78857694  0.14863499    -0.30200
N1087       N  0.10707351  0.76459549  0.12076748     0.14000
C1088       C  0.11844386  0.78194932  0.08799062    -0.30200
C1089       C  0.24043529  0.89358452  0.13020800    -0.30500
N1090       N  0.25911222  0.90217878  0.09556212     0.14500
H1091       H  0.25140198  0.90142448  0.15701164     0.17200
C1092       C  0.23690163  0.88788896  0.06844532    -0.30500
H1093       H  0.24462089  0.89050942  0.03821783     0.17200
H1094       H  0.10776475  0.77044149  0.06118777     0.17200
H1095       H  0.13552156  0.89319747  0.18307388     0.17200
H1096       H  0.12142338  0.78293852  0.17791505     0.17200
C1097       C  0.17472697  0.85914640  0.19586279    -0.04300
C1098       C  0.17848777  0.83622220  0.21101588    -0.01400
C1099       C  0.17461401  0.83277401  0.25115791     0.03600
C1100       C  0.16746152  0.85267258  0.27809897    -0.04300
C1101       C  0.17506454  0.88251534  0.26245995    -0.01400
C1102       C  0.17892255  0.88573231  0.22212670     0.03600
C1103       C  0.19033038  0.81890717  0.18540112     0.38200
C1104       C  0.18422087  0.91259528  0.28695471     0.38200
C1105       C  0.19444192  0.91929086  0.20773218     0.36600
C1106       C  0.18271038  0.81189748  0.26414240     0.36600
N1107       N  0.20750102  0.94625292  0.19619501    -0.38200
N1108       N  0.18963966  0.79535745  0.27382481    -0.38200
N1109       N  0.19189900  0.93705762  0.30588813    -0.37600
N1110       N  0.20005707  0.80539435  0.16491699    -0.37600
C1111       C  0.16380167  0.84668538  0.44628735    -0.04300
C1112       C  0.16588479  0.82356736  0.46416138    -0.01400
C1113       C  0.16781731  0.82617061  0.50446593     0.03600
C1114       C  0.16711478  0.84945794  0.02802822    -0.04300
C1115       C  0.17686546  0.88017851  0.50890202    -0.01400
C1116       C  0.17451986  0.87762459  0.46885608     0.03600
C1117       C  0.17306609  0.80158932  0.44098573     0.38200
C1118       C  0.19765023  0.91253496  0.02819743     0.38200
C1119       C  0.18923055  0.90905304  0.44982542     0.36600
C1120       C  0.17818119  0.80805982  0.51951291     0.36600
N1121       N  0.20187121  0.93416125  0.43419183    -0.38200
N1122       N  0.18809451  0.79508054  0.53143147    -0.38200
N1123       N  0.21502285  0.93936533  0.04367159    -0.37600
N1124       N  0.17960846  0.78421391  0.42350936    -0.37600
C1125       C  0.05678562  0.65933277  0.14570959    -0.04300
C1126       C  0.07290185  0.67077809  0.10888010    -0.01400
C1127       C  0.08693614  0.70447644  0.09908945     0.03600
C1128       C  0.08474646  0.72732173  0.12612373    -0.04300
C1129       C  0.06476833  0.71396612  0.16163746    -0.01400
C1130       C  0.05250862  0.68095475  0.17204273     0.03600
C1131       C  0.07661462  0.64839947  0.08120069     0.38200
C1132       C  0.05536391  0.73342774  0.18696556     0.38200
C1133       C  0.03486663  0.66888746  0.20963349     0.36600
C1134       C  0.10340770  0.71477693  0.06092596     0.36600
N1135       N  0.02093511  0.65917499  0.23960832    -0.38200
N1136       N  0.11544550  0.72136111  0.02980364    -0.38200
N1137       N  0.04750411  0.74859059  0.20735330    -0.37600
N1138       N  0.08006184  0.63115193  0.05863052    -0.37600
C1139       C  0.36817386  0.95436372  0.09148645    -0.04300
C1140       C  0.35480825  0.97370611  0.09742924    -0.01400
C1141       C  0.31887796  0.95665331  0.09683556     0.03600
C1142       C  0.29616565  0.92064035  0.08910796    -0.04300
C1143       C  0.30962880  0.90204993  0.07859831    -0.01400
C1144       C  0.34516521  0.91841504  0.08017893     0.03600
C1145       C  0.37702469  0.01073173  0.10627455     0.38200
C1146       C  0.28607336  0.86526763  0.06862003     0.38200
C1147       C  0.35686934  0.89700360  0.07338065     0.36600
C1148       C  0.30482223  0.97589959  0.10528244     0.36600
N1149       N  0.36607657  0.87985389  0.06975769    -0.38200
N1150       N  0.29377673  0.99143756  0.11198384    -0.38200
N1151       N  0.26715967  0.83595984  0.06056686    -0.37600
N1152       N  0.39438228  0.04041186  0.11268332    -0.37600
C1153       C  0.07944291  0.94465656  0.14790113    -0.04300
C1154       C  0.06684193  0.91477129  0.16744468    -0.01400
C1155       C  0.08224900  0.89763217  0.15849466     0.03600
C1156       C  0.11144785  0.91072002  0.13139174    -0.04300
C1157       C  0.12437633  0.94061194  0.11221302    -0.01400
C1158       C  0.10866693  0.95750313  0.12038248     0.03600
C1159       C  0.03837807  0.90137571  0.19742325     0.38200
C1160       C  0.15470732  0.95517058  0.08474009     0.38200
C1161       C  0.12426984  0.98938565  0.10162733     0.36600
C1162       C  0.06745625  0.86573422  0.17662506     0.36600
N1163       N  0.14378773  0.52071118  0.09316425    -0.38200
N1164       N  0.05581248  0.84031394  0.19102654    -0.38200
N1165       N  0.17872406  0.96810563  0.06244099    -0.37600
N1166       N  0.51807627  0.89188226  0.22514754    -0.37600
C1167       C  0.06335421  0.64792971  0.35523663    -0.04300
C1168       C  0.10004652  0.67392663  0.35319746    -0.01400
C1169       C  0.11477876  0.70901286  0.34940899     0.03600
C1170       C  0.09352986  0.71915642  0.34905116    -0.04300
C1171       C  0.05759871  0.69363855  0.34789982    -0.01400
C1172       C  0.04250045  0.65806349  0.35010588     0.03600
C1173       C  0.12326510  0.66541691  0.35594143     0.38200
C1174       C  0.03614011  0.70432571  0.34577555     0.38200
C1175       C  0.00532543  0.63255563  0.34888072     0.36600
C1176       C  0.15215317  0.73522306  0.34638875     0.36600
N1177       N  0.47426609  0.61357924  0.35154860    -0.38200
N1178       N  0.18199712  0.75601559  0.34361765    -0.38200
N1179       N  0.01891609  0.71277585  0.34406225    -0.37600
N1180       N  0.14235515  0.65944269  0.35846654    -0.37600
C1181       C  0.28761797  0.91594041  0.34945871    -0.04300
C1182       C  0.30079047  0.89694692  0.34355834    -0.01400
C1183       C  0.33514515  0.91308498  0.35021128     0.03600
C1184       C  0.35696934  0.94899150  0.36074448    -0.04300
C1185       C  0.34508373  0.96899230  0.35968753    -0.01400
C1186       C  0.30985088  0.95208010  0.35589669     0.03600
C1187       C  0.27830203  0.86045400  0.33198397     0.38200
C1188       C  0.36370360  0.50451231  0.37028682     0.38200
C1189       C  0.29584892  0.97134632  0.36033213     0.36600
C1190       C  0.34745169  0.89231618  0.34672710     0.36600
N1191       N  0.28055720  0.48255367  0.36042825    -0.38200
N1192       N  0.35651892  0.87509370  0.34407160    -0.38200
N1193       N  0.38052016  0.53431030  0.37566588    -0.37600
N1194       N  0.26049303  0.83144838  0.32225082    -0.37600
C1195       C  0.05530710  0.91965327  0.40322119    -0.04300
C1196       C  0.07859617  0.92704984  0.42869144    -0.01400
C1197       C  0.09681912  0.91275208  0.42184042     0.03600
C1198       C  0.09059793  0.88887841  0.39072272    -0.04300
C1199       C  0.06501557  0.87913815  0.36722327    -0.01400
C1200       C  0.04809138  0.89487537  0.37292555     0.03600
C1201       C  0.08485706  0.95003802  0.46202979     0.38200
C1202       C  0.05521889  0.85220111  0.33750367     0.38200
C1203       C  0.02226546  0.88432247  0.34807725     0.36600
C1204       C  0.12298147  0.92431146  0.44664123     0.36600
N1205       N  0.49781538  0.87226208  0.33179303    -0.38200
N1206       N  0.14318430  0.93424883  0.46766402    -0.38200
N1207       N  0.04743752  0.83093324  0.31351536    -0.37600
N1208       N  0.09003095  0.96776732  0.48915123    -0.37600
C1209       C  0.40633779  0.56493420  0.20392125    -0.04300
C1210       C  0.37195342  0.54758799  0.22184441    -0.01400
C1211       C  0.35640244  0.56473105  0.22839136     0.03600
C1212       C  0.37579645  0.59979224  0.21957609    -0.04300
C1213       C  0.41009143  0.61727401  0.20301821    -0.01400
C1214       C  0.42403112  0.59914483  0.19190963     0.03600
C1215       C  0.35161615  0.51143224  0.23069441     0.38200
C1216       C  0.43180449  0.65445012  0.19898796     0.38200
C1217       C  0.45477870  0.61513010  0.16494759     0.36600
C1218       C  0.32036848  0.54645542  0.24369417     0.36600
N1219       N  0.98111882  0.62740661  0.13997357    -0.38200
N1220       N  0.29150097  0.53189667  0.25559061    -0.38200
N1221       N  0.45028115  0.68427815  0.19665561    -0.37600
N1222       N  0.33777924  0.98435526  0.24092760    -0.37600
C1223       C  0.39227716  0.78521951  0.23140704    -0.04300
C1224       C  0.37976701  0.80415149  0.24706729    -0.01400
C1225       C  0.39756722  0.83868908  0.23707578     0.03600
C1226       C  0.42787076  0.85442081  0.21122813    -0.04300
C1227       C  0.43964079  0.83513910  0.19445222    -0.01400
C1228       C  0.42270295  0.80115060  0.20565349     0.03600
C1229       C  0.34749250  0.78755613  0.27161238     0.38200
C1230       C  0.46685603  0.84890372  0.16307049     0.38200
C1231       C  0.43643203  0.78233862  0.19045200     0.36600
C1232       C  0.38340226  0.85734142  0.25120112     0.36600
N1233       N  0.44789503  0.76774477  0.17842009    -0.38200
N1234       N  0.37198219  0.87223901  0.26146596    -0.38200
N1235       N  0.48807112  0.85954407  0.13752488    -0.37600
N1236       N  0.32170212  0.77500052  0.29115820    -0.37600
C1237       C  0.19384825  0.58857079  0.26448890    -0.04300
C1238       C  0.18224996  0.60902006  0.27018036    -0.01400
C1239       C  0.14692377  0.59370966  0.26889056     0.03600
C1240       C  0.12251483  0.55735864  0.26067873    -0.04300
C1241       C  0.13401985  0.53655968  0.25878365    -0.01400
C1242       C  0.16953264  0.55227239  0.26089809     0.03600
C1243       C  0.20742750  0.64638062  0.27490317     0.38200
C1244       C  0.11032939  0.49929340  0.25269070     0.38200
C1245       C  0.18155629  0.53133906  0.25847572     0.36600
C1246       C  0.13658778  0.61625840  0.27378694     0.36600
N1247       N  0.19112477  0.51461726  0.25691029    -0.38200
N1248       N  0.12864684  0.63443731  0.27653460    -0.38200
N1249       N  0.09191346  0.46940959  0.24838230    -0.37600
N1250       N  0.22750540  0.67620691  0.27844684    -0.37600
C1251       C  0.41616528  0.57491684  0.45630899    -0.04300
C1252       C  0.37980759  0.55212257  0.46596066    -0.01400
C1253       C  0.35994450  0.56402406  0.97111617     0.03600
C1254       C  0.37663973  0.60037755  0.46792947    -0.04300
C1255       C  0.41295578  0.62312077  0.45866686    -0.01400
C1256       C  0.43271705  0.61054598  0.45337186     0.03600
C1257       C  0.36264070  0.51465805  0.96718399     0.38200
C1258       C  0.43003018  0.65972346  0.45541507     0.38200
C1259       C  0.47026717  0.63452358  0.44684667     0.36600
C1260       C  0.32279084  0.54073011  0.98134449     0.36600
N1261       N  0.50025428  0.65372542  0.44224953    -0.38200
N1262       N  0.29312619  0.52208170  0.98965903    -0.38200
N1263       N  0.44378500  0.68897998  0.45276283    -0.37600
N1264       N  0.34914004  0.98602556  0.96391229    -0.37600
C1265       C  0.39496118  0.79175919  0.50490051    -0.04300
C1266       C  0.42738863  0.81451090  0.00821629    -0.01400
C1267       C  0.44553420  0.85281559  0.50383753     0.03600
C1268       C  0.42447235  0.86265941  0.49811038    -0.04300
C1269       C  0.38778453  0.83605709  0.49892433    -0.01400
C1270       C  0.37338782  0.80133951  0.50420465     0.03600
C1271       C  0.44849552  0.80378212  0.01223137     0.38200
C1272       C  0.36421066  0.84293554  0.49185817     0.38200
C1273       C  0.33604783  0.77491451  0.50840594     0.36600
C1274       C  0.47898167  0.87554223  0.01148991     0.36600
N1275       N  0.30622880  0.75413216  0.51252140    -0.38200
N1276       N  0.00665287  0.89355780  0.01384960    -0.38200
N1277       N  0.34512561  0.84782357  0.48559835    -0.37600
N1278       N  0.46529571  0.79516554  0.01548269    -0.37600
C1279       C  0.13361531  0.55386828  0.47729988    -0.04300
C1280       C  0.15388420  0.54569984  0.45343845    -0.01400
C1281       C  0.18815857  0.56142104  0.46084843     0.03600
C1282       C  0.20271092  0.58628346  0.49129070    -0.04300
C1283       C  0.17921819  0.59006134  0.02085252    -0.01400
C1284       C  0.14574706  0.57630518  0.01276992     0.03600
C1285       C  0.14048072  0.52320153  0.41976083     0.38200
C1286       C  0.19215338  0.61172219  0.05503460     0.38200
C1287       C  0.12752716  0.58854530  0.03527602     0.36600
C1288       C  0.20862000  0.55218153  0.43714229     0.36600
N1289       N  0.11456351  0.59985300  0.05360978    -0.38200
N1290       N  0.22491353  0.54470051  0.41831901    -0.38200
N1291       N  0.20087729  0.62790010  0.08327757    -0.37600
N1292       N  0.13000280  0.50545361  0.39272390    -0.37600
C1293       C  0.33236368  0.67125032  0.40603843    -0.04300
C1294       C  0.34723323  0.65949875  0.37808786    -0.01400
C1295       C  0.33537589  0.64821850  0.34187480     0.03600
C1296       C  0.32536672  0.66494493  0.32478346    -0.01700
C1297       C  0.31548634  0.68297186  0.35110666    -0.01400
C1298       C  0.31722531  0.68448078  0.39136952     0.03600
C1299       C  0.38249739  0.67244034  0.37996961     0.38200
C1300       C  0.30078721  0.69748523  0.33762866     0.38200
C1301       C  0.30444339  0.70073050  0.41709612     0.36600
C1302       C  0.31770201  0.61155708  0.33364903     0.36600
N1303       N  0.29412778  0.71384031  0.43725240    -0.38200
N1304       N  0.30336955  0.58204275  0.32786983    -0.38200
N1305       N  0.28866003  0.70892171  0.32732376    -0.37600
N1306       N  0.41097510  0.68317968  0.38096674    -0.37600
C1307       C  0.31995660  0.65702862  0.15654953    -0.04300
C1308       C  0.29787314  0.66117050  0.14051358    -0.01400
C1309       C  0.30056629  0.66407729  0.10033131     0.03600
C1310       C  0.32422854  0.66137005  0.07423638    -0.04300
C1311       C  0.35173213  0.66720377  0.09116094    -0.01400
C1312       C  0.34987492  0.66558437  0.13131449     0.03600
C1313       C  0.27639861  0.66853592  0.16538235     0.38200
C1314       C  0.38455813  0.68052811  0.06831834     0.38200
C1315       C  0.38163817  0.67895958  0.14664859     0.36600
C1316       C  0.28433387  0.67712166  0.08690568     0.36600
N1317       N  0.40752841  0.69034925  0.15818037    -0.38200
N1318       N  0.27268676  0.68883067  0.07601000    -0.38200
N1319       N  0.41095232  0.69155793  0.05043764    -0.37600
N1320       N  0.25960529  0.67513240  0.18477678    -0.37600
C1321       C  0.32691443  0.66397138  0.52873480     0.31100
C1322       C  0.32834524  0.66504583  0.95072954     0.31100
C1323       C  0.33941386  0.64471861  0.50286583    -0.05100
C1324       C  0.29268616  0.64798316  0.51170332    -0.05900
C1325       C  0.35106752  0.70040008  0.51265944    -0.05800
C1326       C  0.34052925  0.64505432  0.96351054    -0.05100
C1327       C  0.29233131  0.64616033  0.97363994    -0.05900
C1328       C  0.34943178  0.69956838  0.97405970    -0.05800
C1329       C  0.35068162  0.62494909  0.94650701    -0.31200
N1330       N  0.35649330  0.61275769  0.97371774     0.15300
C1331       C  0.34881706  0.62419291  0.50845710    -0.31200
H1332       H  0.35089994  0.61818435  0.53539372     0.17300
C1333       C  0.25916297  0.62321060  0.96364266    -0.30200
N1334       N  0.23994740  0.61026902  0.49176366     0.14000
C1335       C  0.25825135  0.62142631  0.52220584    -0.30200
C1336       C  0.36776952  0.73405803  0.96704428    -0.30500
N1337       N  0.38076546  0.75572922  0.50011863     0.14500
H1338       H  0.37211700  0.74456895  0.94007067     0.17200
C1339       C  0.36799593  0.73368637  0.52845454    -0.30500
H1340       H  0.36881742  0.74107895  0.55842169     0.17200
H1341       H  0.24755448  0.61006968  0.54969915     0.17200
H1342       H  0.35385049  0.61922361  0.91661051     0.17200
H1343       H  0.25159016  0.61834211  0.93530134     0.17200
C1344       C  0.32023850  0.65832964  0.70079494     0.31100
C1345       C  0.32387950  0.66363130  0.77989081     0.31100
C1346       C  0.33752848  0.64436528  0.71482413    -0.05100
C1347       C  0.33911091  0.69457222  0.72046627    -0.05900
C1348       C  0.28525906  0.63768122  0.72645668    -0.05800
C1349       C  0.34104614  0.64852547  0.75398781    -0.05100
C1350       C  0.34141502  0.69791286  0.75975427    -0.05900
C1351       C  0.28716622  0.64072965  0.76602270    -0.05800
C1352       C  0.35886580  0.63586737  0.75864969    -0.31200
N1353       N  0.36191436  0.62064118  0.72548738     0.15300
C1354       C  0.34866620  0.62511330  0.69868254    -0.31200
H1355       H  0.34750290  0.61519392  0.66955710     0.17300
C1356       C  0.36180725  0.73336943  0.76883048    -0.30200
N1357       N  0.37128662  0.75060548  0.73654141     0.14000
C1358       C  0.35735168  0.72709123  0.70727677    -0.30200
C1359       C  0.25345752  0.62112106  0.78313288    -0.30500
N1360       N  0.23141913  0.60589036  0.75570090     0.14500
H1361       H  0.24548787  0.61904677  0.81332748     0.17200
C1362       C  0.25042110  0.61510483  0.72125944    -0.30500
H1363       H  0.23942473  0.60688387  0.69445666     0.17200
H1364       H  0.36098978  0.73340907  0.67811545     0.17200
H1365       H  0.36945464  0.63761880  0.78381137     0.17200
H1366       H  0.36984313  0.74570559  0.79647398     0.17200
O1367       O  0.02982714  0.94053694  0.87919960    -0.74200
O1368       O  0.02813097  0.94157891  0.94310535    -0.53100
C1369       C  0.03480226  0.93288794  0.90932235     0.79500
O1370       O  0.06216529  0.60831520  0.89124206    -0.58800
O1371       O  0.01472471  0.58522669  0.86071823    -0.51900
C1372       C  0.04489182  0.61118696  0.87065992     0.71500
O1373       O  0.09991290  0.56272654  0.94934590    -0.73400
O1374       O  0.07057194  0.51256141  0.98087362    -0.54000
C1375       C  0.09834793  0.54215006  0.96999660     0.77500
O1376       O  0.99849572  0.99195729  0.81530794    -0.58500
O1377       O  0.45718997  0.49960328  0.82786413    -0.51700
C1378       C  0.47004521  0.48468021  0.81134180     0.74100
Zr1379     Zr  0.00799698  0.97153166  0.86466117     2.54700
O1380       O  0.05791087  0.48686345  0.81902090    -0.79100
O1381       O  0.47121497  0.91862415  0.83165200    -0.92500
Zr1382     Zr  0.06001371  0.56390471  0.91879623     2.64700
O1383       O  0.10738115  0.58281121  0.86838400    -0.97500
O1384       O  0.09643704  0.61818002  0.95517809    -0.79500
O1385       O  0.04517521  0.50699812  0.91316940    -0.82900
O1386       O  0.02554395  0.53065077  0.86886441    -2.17600
O1387       O  0.38982207  0.94268053  0.89526995    -0.66300
O1388       O  0.41635855  0.99413887  0.86806047    -0.50900
C1389       C  0.39025080  0.96251749  0.87447258     0.72500
O1390       O  0.46972491  0.49591265  0.53288945    -0.59200
O1391       O  0.00858404  0.98640972  0.53440093    -0.51200
C1392       C  0.49942420  0.00699784  0.54344642     0.74300
O1393       O  0.44205816  0.55320157  0.97917118    -0.70600
O1394       O  0.44848498  0.55843323  0.91539949    -0.49300
C1395       C  0.43718603  0.56148584  0.94963265     0.75700
O1396       O  0.42049729  0.89947054  0.96815791    -0.65900
O1397       O  0.47012184  0.92090496  0.99261630    -0.53100
C1398       C  0.43852442  0.89597578  0.98660414     0.74000
Zr1399     Zr  0.42518706  0.94354262  0.93645812     2.77500
O1400       O  0.38144557  0.93495079  0.98760828    -0.96700
O1401       O  0.38238699  0.88498745  0.91209735    -0.77500
Zr1402     Zr  0.47653445  0.53549310  0.99238215     2.70100
O1403       O  0.45150306  0.04654101  0.54677003    -0.78700
O1404       O  0.02659844  0.59597664  0.51460697    -0.97800
Zr1405     Zr  0.00900625  0.97629035  0.96887657     2.21500
Zr1406     Zr  0.47381926  0.52918744  0.88779702     2.11100
O1407       O  0.44067186  0.00046385  0.94237295    -2.46500
O1408       O  0.46029095  0.97729673  0.98519150    -0.78500
O1409       O  0.45939716  0.97119481  0.88065885    -0.70700
O1410       O  0.02781368  0.53651756  0.97579969    -2.31700
O1411       O  0.47505104  0.94487989  0.91964890    -2.27900
O1412       O  0.00981540  0.56194593  0.93410007    -0.72500
H1413       H  0.03881310  0.54376114  0.84640815     0.79500
H1414       H  0.04608593  0.55315517  0.49411609     0.80600
H1415       H  0.41919502  0.99773204  0.94639926     0.82800
H1416       H  0.46902486  0.92187782  0.91712587     0.80400
H1417       H  0.12043861  0.62840215  0.94362537     0.43500
H1418       H  0.03712581  0.61108412  0.49271476     0.42400
H1419       H  0.42667425  0.03062836  0.54236623     0.42100
H1420       H  0.39302674  0.95721203  0.00271230     0.40000
H1421       H  0.39631702  0.87848746  0.89617582     0.43200
H1422       H  0.46243241  0.90105380  0.85040412     0.38000
H1423       H  0.07866319  0.50522147  0.83202951     0.44100
H1424       H  0.10781960  0.56270402  0.86228948     0.40500
H1425       H  0.36425883  0.93386293  0.97499193     0.45400
H1426       H  0.99178308  0.91609605  0.81099275     0.44100
H1427       H  0.09917001  0.58443040  0.84588801     0.44300
H1428       H  0.50790835  0.60202327  0.53317736     0.44600
O1429       O  0.06101296  0.97627384  0.62840033    -0.74200
O1430       O  0.04467457  0.95968643  0.68916736    -0.53100
C1431       C  0.06030048  0.96144809  0.65612526     0.79500
O1432       O  0.05464923  0.62212891  0.68370947    -0.58800
O1433       O  0.01532444  0.60079951  0.64096478    -0.51900
C1434       C  0.04064951  0.62582581  0.65920457     0.71500
O1435       O  0.08792083  0.56719086  0.73274586    -0.73400
O1436       O  0.06229663  0.51233071  0.74908647    -0.54000
C1437       C  0.08851977  0.54484248  0.74714902     0.77500
O1438       O  0.04625834  0.04652550  0.57367230    -0.58500
O1439       O  0.50586266  0.55446168  0.57855864    -0.51700
C1440       C  0.51845079  0.53855150  0.56517186     0.74100
Zr1441     Zr  0.04224122  0.01098431  0.61853642     2.54700
O1442       O  0.10664601  0.55859400  0.61812803    -0.79100
O1443       O  0.56053716  0.99471031  0.55611499    -0.92500
Zr1444     Zr  0.04908808  0.57372633  0.70757324     2.64700
O1445       O  0.10789254  0.62555020  0.69118704    -0.97500
O1446       O  0.04973613  0.60154543  0.76974313    -0.79500
O1447       O  0.05466603  0.52926103  0.68210918    -0.82900
O1448       O  0.03866297  0.55829514  0.64368037    -2.17600
O1449       O  0.40425985  0.94925605  0.61714628    -0.66300
O1450       O  0.42756635  0.00451894  0.60572788    -0.50900
C1451       C  0.40280079  0.97156184  0.60439923     0.72500
O1452       O  0.43057690  0.45533211  0.76663082    -0.59200
O1453       O  0.96687710  0.94158362  0.76706031    -0.51200
C1454       C  0.45704812  0.95828628  0.78104669     0.74300
O1455       O  0.42277401  0.53551188  0.72501380    -0.70600
O1456       O  0.44458576  0.55709112  0.66611910    -0.49300
C1457       C  0.42601686  0.55242205  0.69765351     0.75700
O1458       O  0.43095311  0.89704066  0.67776455    -0.65900
O1459       O  0.47575622  0.91629341  0.71155460    -0.53100
C1460       C  0.44658280  0.89220585  0.69847870     0.74000
Zr1461     Zr  0.44149248  0.94538232  0.64882881     2.77500
O1462       O  0.38144219  0.89754553  0.66824963    -0.96700
O1463       O  0.44154952  0.91525106  0.58877024    -0.77500
Zr1464     Zr  0.44857112  0.50915362  0.74241454     2.70100
O1465       O  0.39640145  0.98108363  0.77736628    -0.78700
O1466       O  0.96903501  0.54764540  0.79405176    -0.97800
Zr1467     Zr  0.00765639  0.97586113  0.71516038     2.21500
Zr1468     Zr  0.47987008  0.53923920  0.64219956     2.11100
O1469       O  0.43747370  0.99086497  0.67502736    -2.46500
O1470       O  0.45522226  0.96409916  0.71075332    -0.78500
O1471       O  0.48598013  0.99383916  0.61469071    -0.70700
O1472       O  0.00705165  0.52417917  0.74310337    -2.31700
O1473       O  0.49879801  0.96267959  0.64891484    -2.27900
O1474       O  0.99221161  0.55597836  0.70445037    -0.72500
H1475       H  0.05560467  0.57982202  0.63106698     0.79500
H1476       H  0.01411211  0.53152572  0.76828470     0.80600
H1477       H  0.41454432  0.98444602  0.67502895     0.82800
H1478       H  0.49883762  0.94316361  0.63980706     0.80400
H1479       H  0.05591636  0.59210322  0.78669914     0.43500
H1480       H  0.98118706  0.57046438  0.78303319     0.42400
H1481       H  0.37930242  0.96183510  0.76085613     0.42100
H1482       H  0.37061963  0.90879444  0.67993006     0.40000
H1483       H  0.44798183  0.93135042  0.56920789     0.43200
H1484       H  0.54798115  0.96944644  0.55776506     0.38000
H1485       H  0.10915392  0.57825070  0.63367077     0.44100
H1486       H  0.11284135  0.64213852  0.71313227     0.40500
H1487       H  0.37063202  0.88615445  0.64433683     0.45400
H1488       H  0.08290910  0.00216846  0.55839696     0.44100
H1489       H  0.12356162  0.61931098  0.69185254     0.44300
H1490       H  0.44337216  0.54507721  0.80967861     0.44600
C1491       C  0.16234138  0.84780696  0.82328651     0.31100
C1492       C  0.16106048  0.84429974  0.90171882     0.31100
C1493       C  0.14485173  0.86174349  0.85086859    -0.05100
C1494       C  0.14165062  0.81083024  0.83891600    -0.05900
C1495       C  0.19712785  0.86670574  0.83926285    -0.05800
C1496       C  0.14405489  0.85962291  0.89001710    -0.05100
C1497       C  0.14099331  0.80925846  0.87837748    -0.05900
C1498       C  0.19648010  0.86488569  0.87811493    -0.05800
C1499       C  0.12131848  0.86589361  0.90852409    -0.31200
N1500       N  0.10981944  0.87392619  0.88284612     0.15300
C1501       C  0.12334177  0.87048351  0.84762702    -0.31200
H1502       H  0.11771584  0.87378495  0.82130667     0.17300
C1503       C  0.11917647  0.77464100  0.88643340    -0.30200
N1504       N  0.10792702  0.75520148  0.85378254     0.14000
C1505       C  0.12063537  0.77674634  0.82481868    -0.30200
C1506       C  0.23021001  0.88297477  0.88562051    -0.30500
N1507       N  0.25093166  0.89569512  0.85272625     0.14500
H1508       H  0.23913660  0.88622223  0.91277168     0.17200
C1509       C  0.23126610  0.88595310  0.82416531    -0.30500
H1510       H  0.24110484  0.89188575  0.79469024     0.17200
H1511       H  0.11544733  0.76809536  0.79560775     0.17200
H1512       H  0.11294176  0.86367323  0.93862360     0.17200
H1513       H  0.11226994  0.76396583  0.91397550     0.17200
C1514       C  0.16724398  0.85329475  0.57374192     0.31100
C1515       C  0.17113837  0.85879958  0.65260884     0.31100
C1516       C  0.15499329  0.87333689  0.59871063    -0.05100
C1517       C  0.14456498  0.81868838  0.59516872    -0.05900
C1518       C  0.20328436  0.87140165  0.58714796    -0.05800
C1519       C  0.15675733  0.87587819  0.63828151    -0.05100
C1520       C  0.14694404  0.82214700  0.63437367    -0.05900
C1521       C  0.20517261  0.87414584  0.62640482    -0.05800
C1522       C  0.13946801  0.88919929  0.65482144    -0.31200
N1523       N  0.12895596  0.89642796  0.62735096     0.15300
C1524       C  0.13743200  0.88607371  0.59317555    -0.31200
H1525       H  0.13023171  0.88671093  0.56645602     0.17300
C1526       C  0.12372881  0.78990466  0.64872140    -0.30200
N1527       N  0.10732319  0.76603060  0.62039406     0.14000
C1528       C  0.11922222  0.78340808  0.58755396    -0.30200
C1529       C  0.23972429  0.89317027  0.63166364    -0.30500
N1530       N  0.25863793  0.90181790  0.59716102     0.14500
H1531       H  0.25043533  0.90053615  0.65857484     0.17200
C1532       C  0.23680887  0.88865389  0.56983215    -0.30500
H1533       H  0.24484407  0.89189661  0.53970007     0.17200
H1534       H  0.10995495  0.77149965  0.56020706     0.17200
H1535       H  0.13358445  0.89229932  0.68485268     0.17200
H1536       H  0.11964653  0.78401206  0.67808617     0.17200
C1537       C  0.17392330  0.85965662  0.69681010    -0.04300
C1538       C  0.17722306  0.83609307  0.71138142    -0.01400
C1539       C  0.17377750  0.83245127  0.75136558     0.03600
C1540       C  0.16712098  0.85239858  0.77872235    -0.04300
C1541       C  0.17488721  0.88250148  0.76386155    -0.01400
C1542       C  0.17798541  0.88595462  0.72375786     0.03600
C1543       C  0.18712108  0.81731352  0.68533475     0.38200
C1544       C  0.18534923  0.91261648  0.78902733     0.38200
C1545       C  0.19148589  0.91932931  0.71059549     0.36600
C1546       C  0.18201967  0.81146527  0.76372832     0.36600
N1547       N  0.20243544  0.94626921  0.70074460    -0.38200
N1548       N  0.18926198  0.79497742  0.77278748    -0.38200
N1549       N  0.19429834  0.93693536  0.80884936    -0.37600
N1550       N  0.19469658  0.80206443  0.66463860    -0.37600
C1551       C  0.16406519  0.84599242  0.94600041    -0.04300
C1552       C  0.16567206  0.82225609  0.96307895    -0.01400
C1553       C  0.16669687  0.82368962  0.00340454     0.03600
C1554       C  0.16737830  0.85158687  0.52867263    -0.04300
C1555       C  0.17757896  0.87871452  0.00881186    -0.01400
C1556       C  0.17536015  0.87684769  0.96891938     0.03600
C1557       C  0.17399554  0.80148944  0.93891669     0.38200
C1558       C  0.19658464  0.91429870  0.52760887     0.38200
C1559       C  0.19087554  0.90875887  0.95046975     0.36600
C1560       C  0.17501845  0.80362046  0.01798165     0.36600
N1561       N  0.20437618  0.93441995  0.93557928    -0.38200
N1562       N  0.18313114  0.78865266  0.02912589    -0.38200
N1563       N  0.21384958  0.94162758  0.54209159    -0.37600
N1564       N  0.18157948  0.78547902  0.91997519    -0.37600
C1565       C  0.05613184  0.66149760  0.64878657    -0.04300
C1566       C  0.07480451  0.67281805  0.61275803    -0.01400
C1567       C  0.08973347  0.70640879  0.60164730     0.03600
C1568       C  0.08511529  0.72890210  0.62611857    -0.04300
C1569       C  0.06286135  0.71574077  0.66044843    -0.01400
C1570       C  0.05010031  0.68309177  0.67267857     0.03600
C1571       C  0.07953404  0.65002882  0.58725860     0.38200
C1572       C  0.05231397  0.73551016  0.68275387     0.38200
C1573       C  0.03031939  0.67156228  0.70953930     0.36600
C1574       C  0.11003540  0.71724376  0.56510686     0.36600
N1575       N  0.01460733  0.66255826  0.73900145    -0.38200
N1576       N  0.12541145  0.72430295  0.53532710    -0.38200
N1577       N  0.04388607  0.75131776  0.70043431    -0.37600
N1578       N  0.08321064  0.63189863  0.56667615    -0.37600
C1579       C  0.36832702  0.95689872  0.59122394    -0.04300
C1580       C  0.35394647  0.97527503  0.59784773    -0.01400
C1581       C  0.31777428  0.95718709  0.59740531     0.03600
C1582       C  0.29576652  0.92095691  0.59093044    -0.04300
C1583       C  0.31010081  0.90315805  0.58067509    -0.01400
C1584       C  0.34617360  0.92103922  0.57970645     0.03600
C1585       C  0.37541595  0.01224366  0.60696155     0.38200
C1586       C  0.28717616  0.86584024  0.57374484     0.38200
C1587       C  0.36002491  0.90172107  0.56904150     0.36600
C1588       C  0.30258018  0.97538950  0.60464400     0.36600
N1589       N  0.37148418  0.88662293  0.56169030    -0.38200
N1590       N  0.29010562  0.98960312  0.61013186    -0.38200
N1591       N  0.26885162  0.83601874  0.56854159    -0.37600
N1592       N  0.39204503  0.04184398  0.61383683    -0.37600
C1593       C  0.07839561  0.94494907  0.64940412    -0.04300
C1594       C  0.06527849  0.91455937  0.66820047    -0.01400
C1595       C  0.08120403  0.89796614  0.65969580     0.03600
C1596       C  0.11142917  0.91224885  0.63396645    -0.04300
C1597       C  0.12589185  0.94366619  0.61719604    -0.01400
C1598       C  0.10941731  0.95977094  0.62447953     0.03600
C1599       C  0.03632606  0.90065496  0.69765768     0.38200
C1600       C  0.15918943  0.96107050  0.59453864     0.38200
C1601       C  0.12618747  0.99307204  0.60834808     0.36600
C1602       C  0.06644750  0.86603436  0.67771683     0.36600
N1603       N  0.14083790  0.51935283  0.59085600    -0.38200
N1604       N  0.05480074  0.84075834  0.69243637    -0.38200
N1605       N  0.18597143  0.97634036  0.57677908    -0.37600
N1606       N  0.51888907  0.89458810  0.72289419    -0.37600
C1607       C  0.06108540  0.64744580  0.85939886    -0.04300
C1608       C  0.09791259  0.67313770  0.85606016    -0.01400
C1609       C  0.11299878  0.70793035  0.84987465     0.03600
C1610       C  0.09211819  0.71861089  0.85034187    -0.04300
C1611       C  0.05586731  0.69366136  0.85252698    -0.01400
C1612       C  0.04031641  0.65807654  0.85578462     0.03600
C1613       C  0.12101787  0.66501588  0.86094465     0.38200
C1614       C  0.03469139  0.70512540  0.85295876     0.38200
C1615       C  0.00283573  0.63320040  0.85767448     0.36600
C1616       C  0.15043642  0.73338375  0.84395074     0.36600
N1617       N  0.47451209  0.61285871  0.85204213    -0.38200
N1618       N  0.18031179  0.75341436  0.83880400    -0.38200
N1619       N  0.01786995  0.71441892  0.85345175    -0.37600
N1620       N  0.14006552  0.65956381  0.86561395    -0.37600
C1621       C  0.28755969  0.91368833  0.84883728    -0.04300
C1622       C  0.30060544  0.89459702  0.84394758    -0.01400
C1623       C  0.33554557  0.91130107  0.84842118     0.03600
C1624       C  0.35741691  0.94734265  0.85827465    -0.04300
C1625       C  0.34520555  0.96711126  0.85753446    -0.01400
C1626       C  0.30991796  0.94996324  0.85376288     0.03600
C1627       C  0.27730470  0.85740013  0.83630786     0.38200
C1628       C  0.36706358  0.50716585  0.86996800     0.38200
C1629       C  0.29582265  0.96908970  0.85712458     0.36600
C1630       C  0.34857057  0.89108317  0.84343023     0.36600
N1631       N  0.28428251  0.48898749  0.87167316    -0.38200
N1632       N  0.35857297  0.87461216  0.83947444    -0.38200
N1633       N  0.38549773  0.53705605  0.87438760    -0.37600
N1634       N  0.25862083  0.82772186  0.83019361    -0.37600
C1635       C  0.05083219  0.91421214  0.90497064    -0.04300
C1636       C  0.07526672  0.92298614  0.92968838    -0.01400
C1637       C  0.09492091  0.91026558  0.92201338     0.03600
C1638       C  0.08843684  0.88581523  0.89160290    -0.04300
C1639       C  0.06120864  0.87388340  0.86958244    -0.01400
C1640       C  0.04314938  0.88852973  0.87557220     0.03600
C1641       C  0.08112082  0.94559253  0.96324301     0.38200
C1642       C  0.05073796  0.84555137  0.84157307     0.38200
C1643       C  0.01538704  0.87554290  0.85252279     0.36600
C1644       C  0.12290864  0.92402087  0.94502755     0.36600
N1645       N  0.49701803  0.87140967  0.83138834    -0.38200
N1646       N  0.14476463  0.93554151  0.96430183    -0.38200
N1647       N  0.04217725  0.82289612  0.81922106    -0.37600
N1648       N  0.08608628  0.96309242  0.99051850    -0.37600
C1649       C  0.40826844  0.56897305  0.70321738    -0.04300
C1650       C  0.37367081  0.55112419  0.72033293    -0.01400
C1651       C  0.35804406  0.56806405  0.72716878     0.03600
C1652       C  0.37760560  0.60334991  0.71934709    -0.04300
C1653       C  0.41205798  0.62125111  0.70321518    -0.01400
C1654       C  0.42618288  0.60337732  0.69185039     0.03600
C1655       C  0.35325219  0.51467013  0.72799660     0.38200
C1656       C  0.43361793  0.65851981  0.69997048     0.38200
C1657       C  0.45720464  0.61975824  0.66528174     0.36600
C1658       C  0.32181546  0.54924475  0.74181485     0.36600
N1659       N  0.97769470  0.62831658  0.64633334    -0.38200
N1660       N  0.29276509  0.53382784  0.75323456    -0.38200
N1661       N  0.45178854  0.68841800  0.69838328    -0.37600
N1662       N  0.33969183  0.98527956  0.74279744    -0.37600
C1663       C  0.39292637  0.78753519  0.73190165    -0.04300
C1664       C  0.38051929  0.80670087  0.74680018    -0.01400
C1665       C  0.39808666  0.84088613  0.73557971     0.03600
C1666       C  0.42841260  0.85626379  0.70974475    -0.04300
C1667       C  0.44022733  0.83679994  0.69394160    -0.01400
C1668       C  0.42329476  0.80305796  0.70602814     0.03600
C1669       C  0.34851993  0.79048758  0.77180894     0.38200
C1670       C  0.46718120  0.84988290  0.66230214     0.38200
C1671       C  0.43669349  0.78385877  0.69126036     0.36600
C1672       C  0.38350982  0.85937883  0.74800971     0.36600
N1673       N  0.44769975  0.76878987  0.67952167    -0.38200
N1674       N  0.37190084  0.87428333  0.75653388    -0.38200
N1675       N  0.48814217  0.85994985  0.63651431    -0.37600
N1676       N  0.32295024  0.77781196  0.79178262    -0.37600
C1677       C  0.19462066  0.58927339  0.76161125    -0.04300
C1678       C  0.18294467  0.60966942  0.76931037    -0.01400
C1679       C  0.14760692  0.59456536  0.76845736     0.03600
C1680       C  0.12315661  0.55843827  0.75925735    -0.04300
C1681       C  0.13469046  0.53754478  0.75571928    -0.01400
C1682       C  0.17031949  0.55308842  0.75659957     0.03600
C1683       C  0.20787156  0.64678230  0.77627577     0.38200
C1684       C  0.11064395  0.50023743  0.75028053     0.38200
C1685       C  0.18238079  0.53205858  0.75190579     0.36600
C1686       C  0.13712328  0.61701157  0.77590353     0.36600
N1687       N  0.19199216  0.51525138  0.74845946    -0.38200
N1688       N  0.12915795  0.63523866  0.78127052    -0.38200
N1689       N  0.09184468  0.47030721  0.74680138    -0.37600
N1690       N  0.22749308  0.67644022  0.78181725    -0.37600
C1691       C  0.41620764  0.57451852  0.95561381    -0.04300
C1692       C  0.37980178  0.55145350  0.96499330    -0.01400
C1693       C  0.36013711  0.56491059  0.47180836     0.03600
C1694       C  0.37622604  0.59941071  0.96716595    -0.04300
C1695       C  0.41247266  0.62237181  0.95790909    -0.01400
C1696       C  0.43248085  0.61009267  0.95253650     0.03600
C1697       C  0.36260376  0.51545535  0.46935033     0.38200
C1698       C  0.42916190  0.65895458  0.95510636     0.38200
C1699       C  0.46995708  0.63435358  0.94552899     0.36600
C1700       C  0.32289694  0.54166709  0.48135787     0.36600
N1701       N  0.49988175  0.65396480  0.94042132    -0.38200
N1702       N  0.29313544  0.52296130  0.48896273    -0.38200
N1703       N  0.44235679  0.68815067  0.95298435    -0.37600
N1704       N  0.35473814  0.98684701  0.46044740    -0.37600
C1705       C  0.39179648  0.78903046  0.00513269    -0.04300
C1706       C  0.43074681  0.81740804  0.50607642    -0.01400
C1707       C  0.44243772  0.85003899  0.00641950     0.03600
C1708       C  0.42195741  0.86004738  0.99908379    -0.04300
C1709       C  0.38529811  0.83391047  0.99977944    -0.01400
C1710       C  0.37054259  0.79893197  0.00395824     0.03600
C1711       C  0.45235664  0.80683895  0.50812697     0.38200
C1712       C  0.36212676  0.84205231  0.99525753     0.38200
C1713       C  0.33318729  0.77267783  0.00715729     0.36600
C1714       C  0.48269081  0.87819203  0.50532209     0.36600
N1715       N  0.30334031  0.75195985  0.01048602    -0.38200
N1716       N  0.00867794  0.89745596  0.51240712    -0.38200
N1717       N  0.34340528  0.84816547  0.99139656    -0.37600
N1718       N  0.46950780  0.79826533  0.50966454    -0.37600
C1719       C  0.13163804  0.55345515  0.98099898    -0.04300
C1720       C  0.15090190  0.54381579  0.95771387    -0.01400
C1721       C  0.18461889  0.55806364  0.96547509     0.03600
C1722       C  0.19989242  0.58326491  0.99538071    -0.04300
C1723       C  0.18113191  0.59162085  0.51709618    -0.01400
C1724       C  0.14725598  0.57650258  0.50928121     0.03600
C1725       C  0.13728286  0.52156892  0.92393194     0.38200
C1726       C  0.19379185  0.61384722  0.55099989     0.38200
C1727       C  0.12819642  0.58764953  0.53200253     0.36600
C1728       C  0.20394503  0.54720772  0.94239277     0.36600
N1729       N  0.11465792  0.59832831  0.55032472    -0.38200
N1730       N  0.21924547  0.53838753  0.92397745    -0.38200
N1731       N  0.20246928  0.63066801  0.57887291    -0.37600
N1732       N  0.12668327  0.50406599  0.89678046    -0.37600
C1733       C  0.32871753  0.66797437  0.90666681    -0.04300
C1734       C  0.34520723  0.65823235  0.87823447    -0.01400
C1735       C  0.33443899  0.64817502  0.84141425     0.03600
C1736       C  0.32460068  0.66532975  0.82483667    -0.01700
C1737       C  0.31271726  0.68120158  0.85199115    -0.01400
C1738       C  0.31265113  0.68043664  0.89238539     0.03600
C1739       C  0.38095196  0.67308120  0.88063127     0.38200
C1740       C  0.29810417  0.69599743  0.83902562     0.38200
C1741       C  0.29665096  0.69317685  0.91881472     0.36600
C1742       C  0.31683137  0.61169596  0.83182072     0.36600
N1743       N  0.28344059  0.70299159  0.93984958    -0.38200
N1744       N  0.30247451  0.58233358  0.82468372    -0.38200
N1745       N  0.28618454  0.70782019  0.82915258    -0.37600
N1746       N  0.40990023  0.68566664  0.88197181    -0.37600
C1747       C  0.32178008  0.65978081  0.65582520    -0.04300
C1748       C  0.29938577  0.66349717  0.63980168    -0.01400
C1749       C  0.30196960  0.66643976  0.59966147     0.03600
C1750       C  0.32568628  0.66393478  0.57348572    -0.04300
C1751       C  0.35332443  0.66995095  0.59021768    -0.01400
C1752       C  0.35160312  0.66818155  0.63032814     0.03600
C1753       C  0.27724056  0.66996567  0.66469675     0.38200
C1754       C  0.38617375  0.68383884  0.56707962     0.38200
C1755       C  0.38339242  0.68081846  0.64498744     0.36600
C1756       C  0.28601030  0.67990868  0.58659216     0.36600
N1757       N  0.40956768  0.69150034  0.65522347    -0.38200
N1758       N  0.27466127  0.69218438  0.57635499    -0.38200
N1759       N  0.41247195  0.69552120  0.54871322    -0.37600
N1760       N  0.25973367  0.67562779  0.68414350    -0.37600
C1761       C  0.82573957  0.15940005  0.02576847     0.31100
C1762       C  0.83221621  0.16573619  0.44605645     0.31100
C1763       C  0.83889828  0.14098267  0.99943592    -0.05100
C1764       C  0.79091955  0.14194626  0.00949219    -0.05900
C1765       C  0.84839452  0.19566017  0.00935201    -0.05800
C1766       C  0.84364466  0.14543922  0.45977153    -0.05100
C1767       C  0.79626443  0.14764114  0.46867950    -0.05900
C1768       C  0.85357689  0.20052752  0.46897402    -0.05800
C1769       C  0.85356825  0.12498155  0.44369204    -0.31200
N1770       N  0.86009413  0.11405687  0.47146496     0.15300
C1771       C  0.84814915  0.12027802  0.00453974    -0.31200
H1772       H  0.84973697  0.11350584  0.03125564     0.17300
C1773       C  0.76328234  0.12531366  0.45820728    -0.30200
N1774       N  0.73755510  0.10464882  0.99166682     0.14000
C1775       C  0.75667272  0.11603933  0.02137443    -0.30200
C1776       C  0.87086944  0.23484331  0.46182032    -0.30500
N1777       N  0.87595104  0.25049014  0.99633553     0.14500
H1778       H  0.87476312  0.24505017  0.43480290     0.17200
C1779       C  0.86474923  0.22898358  0.02478880    -0.30500
H1780       H  0.86638257  0.23673999  0.05465395     0.17200
H1781       H  0.74662165  0.10538521  0.04923629     0.17200
H1782       H  0.85587174  0.11781698  0.41416135     0.17200
H1783       H  0.75610925  0.12064401  0.42969596     0.17200
C1784       C  0.81937069  0.15482246  0.19750146     0.31100
C1785       C  0.82393156  0.15967810  0.27602142     0.31100
C1786       C  0.83462996  0.13846610  0.21082802    -0.05100
C1787       C  0.84075711  0.19112929  0.21667374    -0.05900
C1788       C  0.78473879  0.13620128  0.22375400    -0.05800
C1789       C  0.83825817  0.14196974  0.24988819    -0.05100
C1790       C  0.84357079  0.19421353  0.25570439    -0.05900
C1791       C  0.78714318  0.13912053  0.26313499    -0.05800
C1792       C  0.85481332  0.12783057  0.25390943    -0.31200
N1793       N  0.85791291  0.11330951  0.22015433     0.15300
C1794       C  0.84569278  0.11940060  0.19366500    -0.31200
H1795       H  0.84548491  0.11100288  0.16403658     0.17300
C1796       C  0.86520085  0.22959650  0.26476610    -0.30200
N1797       N  0.87498694  0.24701375  0.23258353     0.14000
C1798       C  0.86008425  0.22375320  0.20342977    -0.30200
C1799       C  0.75367811  0.12032600  0.28085591    -0.30500
N1800       N  0.73131211  0.10565455  0.25384566     0.14500
H1801       H  0.74609858  0.11785147  0.31111149     0.17200
C1802       C  0.74980899  0.11428285  0.21915465    -0.30500
H1803       H  0.73839235  0.10558456  0.19258199     0.17200
H1804       H  0.86303486  0.23029291  0.17455394     0.17200
H1805       H  0.86507974  0.12864433  0.27885669     0.17200
H1806       H  0.87315854  0.24175739  0.29248617     0.17200
O1807       O  0.53342796  0.44668874  0.38227946    -0.74200
O1808       O  0.53096914  0.44695187  0.44628000    -0.53100
C1809       C  0.53827200  0.43899837  0.41244786     0.79500
O1810       O  0.56333931  0.11147353  0.39036643    -0.58800
O1811       O  0.51677840  0.08764590  0.35803208    -0.51900
C1812       C  0.54642068  0.11392461  0.36879726     0.71500
O1813       O  0.60289989  0.06595609  0.44503418    -0.73400
O1814       O  0.57407418  0.01660078  0.47787680    -0.54000
C1815       C  0.60170049  0.04570357  0.46581437     0.77500
O1816       O  0.50139449  0.49660100  0.31793265    -0.58500
O1817       O  0.95816590  0.99914661  0.32412171    -0.51700
C1818       C  0.97186866  0.98497935  0.30771587     0.74100
Zr1819     Zr  0.50866364  0.47464224  0.36758227     2.54700
O1820       O  0.55588609  0.98490744  0.31597061    -0.79100
O1821       O  0.96824627  0.41644641  0.33421548    -0.92500
Zr1822     Zr  0.56256337  0.06708855  0.41545223     2.64700
O1823       O  0.60500209  0.08165943  0.36035768    -0.97500
O1824       O  0.60525888  0.12318008  0.44523134    -0.79500
O1825       O  0.54716357  0.01012693  0.41086539    -0.82900
O1826       O  0.52701371  0.03331419  0.36654845    -2.17600
O1827       O  0.88899040  0.44471011  0.39786197    -0.66300
O1828       O  0.91615439  0.49572508  0.36932479    -0.50900
C1829       C  0.88966984  0.46446144  0.37662935     0.72500
O1830       O  0.96833097  0.99270213  0.03019473    -0.59200
O1831       O  0.50363374  0.48304562  0.03797775    -0.51200
C1832       C  0.99477227  0.50111462  0.04479536     0.74300
O1833       O  0.94550497  0.05479888  0.47614450    -0.70600
O1834       O  0.95000545  0.05833588  0.41223877    -0.49300
C1835       C  0.93997602  0.06244794  0.44667864     0.75700
O1836       O  0.91878760  0.40077575  0.46995041    -0.65900
O1837       O  0.96871990  0.42154360  0.49327167    -0.53100
C1838       C  0.93693788  0.39678826  0.48745319     0.74000
Zr1839     Zr  0.92454871  0.44579026  0.43917158     2.77500
O1840       O  0.88341339  0.44015594  0.49204650    -0.96700
O1841       O  0.87751372  0.38829340  0.41670931    -0.77500
Zr1842     Zr  0.97846015  0.03567051  0.48934395     2.70100
O1843       O  0.94658580  0.54010188  0.04762554    -0.78700
O1844       O  0.52243022  0.09240114  0.01700649    -0.97800
Zr1845     Zr  0.51031257  0.48016674  0.47190634     2.21500
Zr1846     Zr  0.97463032  0.02866198  0.38438580     2.11100
O1847       O  0.94162220  0.50318957  0.44326675    -2.46500
O1848       O  0.96117146  0.48023193  0.48664271    -0.78500
O1849       O  0.95818927  0.47127650  0.38240301    -0.70700
O1850       O  0.53168446  0.04140304  0.47372899    -2.31700
O1851       O  0.97336207  0.44513814  0.42216213    -2.27900
O1852       O  0.51294734  0.06599793  0.43194372    -0.72500
H1853       H  0.54004388  0.04610849  0.34382370     0.79500
H1854       H  0.54480434  0.05153500  0.99502323     0.80600
H1855       H  0.92036803  0.50086053  0.44733489     0.82800
H1856       H  0.96689458  0.42196966  0.41989983     0.80400
H1857       H  0.59677365  0.12074698  0.47257126     0.43500
H1858       H  0.53309352  0.10807139  0.99562431     0.42400
H1859       H  0.92183608  0.52202020  0.04373235     0.42100
H1860       H  0.89452296  0.46385217  0.50369973     0.40000
H1861       H  0.88931595  0.37953337  0.40050041     0.43200
H1862       H  0.95718311  0.39931803  0.35413743     0.38000
H1863       H  0.57729731  0.99990603  0.32898233     0.44100
H1864       H  0.62756850  0.09487693  0.37095805     0.40500
H1865       H  0.86385943  0.43506379  0.48002548     0.45400
H1866       H  0.48652200  0.41541487  0.31757943     0.44100
H1867       H  0.60040941  0.05934565  0.35078622     0.44300
H1868       H  0.01410885  0.10510182  0.01391079     0.44600
O1869       O  0.56374233  0.47841760  0.12900060    -0.74200
O1870       O  0.54736263  0.46217338  0.18987933    -0.53100
C1871       C  0.56342038  0.46410167  0.15701640     0.79500
O1872       O  0.55758137  0.12140859  0.17898833    -0.58800
O1873       O  0.51794902  0.10008903  0.13655361    -0.51900
C1874       C  0.54394080  0.12507752  0.15405492     0.71500
O1875       O  0.58873705  0.06704321  0.23210293    -0.73400
O1876       O  0.56193103  0.01242762  0.25042454    -0.54000
C1877       C  0.58859375  0.04465628  0.24752761     0.77500
O1878       O  0.54424065  0.54461951  0.07310222    -0.58500
O1879       O  0.00601770  0.05207945  0.07413654    -0.51700
C1880       C  0.01796066  0.03560298  0.06069360     0.74100
Zr1881     Zr  0.54232234  0.51081945  0.11874955     2.54700
O1882       O  0.60575466  0.05684351  0.11320765    -0.79100
O1883       O  0.05498132  0.48701976  0.05783505    -0.92500
Zr1884     Zr  0.55037793  0.07342774  0.20573567     2.64700
O1885       O  0.60981583  0.12306823  0.18715679    -0.97500
O1886       O  0.55319639  0.10397629  0.26655795    -0.79500
O1887       O  0.55438082  0.02777491  0.18192166    -0.82900
O1888       O  0.53882584  0.05663327  0.14231422    -2.17600
O1889       O  0.90432051  0.44495864  0.11800085    -0.66300
O1890       O  0.92743668  0.50013424  0.10644614    -0.50900
C1891       C  0.90292995  0.46718211  0.10497685     0.72500
O1892       O  0.93303875  0.95432124  0.26231107    -0.59200
O1893       O  0.47089683  0.44520999  0.26988578    -0.51200
C1894       C  0.95294412  0.45426504  0.28183075     0.74300
O1895       O  0.92016229  0.02951040  0.22009314    -0.70600
O1896       O  0.94282207  0.05201439  0.16167262    -0.49300
C1897       C  0.92328738  0.04630951  0.19265225     0.75700
O1898       O  0.93085303  0.39370069  0.17890455    -0.65900
O1899       O  0.97520808  0.41334132  0.21356119    -0.53100
C1900       C  0.94651084  0.38902203  0.19964821     0.74000
Zr1901     Zr  0.94156497  0.44233071  0.15110523     2.77500
O1902       O  0.88206609  0.39274019  0.16925166    -0.96700
O1903       O  0.94372217  0.41384986  0.09031469    -0.77500
Zr1904     Zr  0.95013062  0.00754074  0.23789848     2.70100
O1905       O  0.89598404  0.48110624  0.27832459    -0.78700
O1906       O  0.47348297  0.05186358  0.29182606    -0.97800
Zr1907     Zr  0.50976192  0.47787230  0.21644916     2.21500
Zr1908     Zr  0.97968702  0.03611901  0.13749992     2.11100
O1909       O  0.93624851  0.48726257  0.17597694    -2.46500
O1910       O  0.95979378  0.46737578  0.20820472    -0.78500
O1911       O  0.98512425  0.49024865  0.11616358    -0.70700
O1912       O  0.50796814  0.02530410  0.24293825    -2.31700
O1913       O  0.99876950  0.45951839  0.15091002    -2.27900
O1914       O  0.49389541  0.05699369  0.20279893    -0.72500
H1915       H  0.55598279  0.07759717  0.12883311     0.79500
H1916       H  0.51539752  0.03338451  0.26792203     0.80600
H1917       H  0.91325292  0.48068475  0.17584013     0.82800
H1918       H  0.99920122  0.44017832  0.14218180     0.80400
H1919       H  0.55719922  0.09338766  0.28461618     0.43500
H1920       H  0.48447876  0.07410963  0.28003581     0.42400
H1921       H  0.87831572  0.46154206  0.26256424     0.42100
H1922       H  0.86985646  0.40286756  0.17953614     0.40000
H1923       H  0.96754603  0.42059941  0.08561060     0.43200
H1924       H  0.04288813  0.46218730  0.06189567     0.38000
H1925       H  0.61281288  0.06037956  0.13886411     0.44100
H1926       H  0.61771269  0.13825494  0.21044609     0.40500
H1927       H  0.87232223  0.38076244  0.14496794     0.45400
H1928       H  0.58117531  0.50177449  0.05675567     0.44100
H1929       H  0.62361830  0.11416097  0.18268842     0.44300
H1930       H  0.95261580  0.04718170  0.30550428     0.44600
C1931       C  0.66194073  0.35039820  0.32578120     0.31100
C1932       C  0.66033967  0.34645318  0.40437318     0.31100
C1933       C  0.64444055  0.36430278  0.35346314    -0.05100
C1934       C  0.64107378  0.31338204  0.34124640    -0.05900
C1935       C  0.69659275  0.36917752  0.34199453    -0.05800
C1936       C  0.64352443  0.36192915  0.39263340    -0.05100
C1937       C  0.64019154  0.31141250  0.38070101    -0.05900
C1938       C  0.69581545  0.36712670  0.38083158    -0.05800
C1939       C  0.62183806  0.36939265  0.41148251    -0.31200
N1940       N  0.61089757  0.37809668  0.38597074     0.15300
C1941       C  0.62377323  0.37412509  0.35058030    -0.31200
H1942       H  0.61817231  0.37776547  0.32445513     0.17300
C1943       C  0.61828134  0.27654024  0.38801638    -0.30200
N1944       N  0.60734350  0.25752444  0.35498167     0.14000
C1945       C  0.62020669  0.27953834  0.32653220    -0.30200
C1946       C  0.72957255  0.38561684  0.38850274    -0.30500
N1947       N  0.75040177  0.39879902  0.35575488     0.14500
H1948       H  0.73845004  0.38885061  0.41568149     0.17200
C1949       C  0.73078540  0.38895021  0.32711970    -0.30500
H1950       H  0.74071294  0.39518109  0.29771737     0.17200
H1951       H  0.61550029  0.27137970  0.29713421     0.17200
H1952       H  0.61388643  0.36770826  0.44167686     0.17200
H1953       H  0.61110472  0.26538015  0.41529711     0.17200
C1954       C  0.66895766  0.35445517  0.07536373     0.31100
C1955       C  0.67310409  0.35961039  0.15407985     0.31100
C1956       C  0.65742034  0.37496050  0.10048858    -0.05100
C1957       C  0.64602154  0.31977872  0.09655608    -0.05900
C1958       C  0.70481938  0.37172511  0.08842591    -0.05800
C1959       C  0.65928280  0.37732809  0.13994541    -0.05100
C1960       C  0.64863016  0.32289439  0.13569973    -0.05900
C1961       C  0.70696379  0.37440899  0.12763340    -0.05800
C1962       C  0.64331008  0.39200924  0.15664050    -0.31200
N1963       N  0.63330267  0.39992242  0.12927107     0.15300
C1964       C  0.64102605  0.38896824  0.09506640    -0.31200
H1965       H  0.63399738  0.38998588  0.06842148     0.17300
C1966       C  0.62682923  0.29014438  0.14907492    -0.30200
N1967       N  0.61065999  0.26654444  0.12032243     0.14000
C1968       C  0.62158025  0.28448681  0.08817661    -0.30200
C1969       C  0.74140409  0.39200596  0.13228957    -0.30500
N1970       N  0.75982073  0.39975115  0.09748088     0.14500
H1971       H  0.75241273  0.39905598  0.15896144     0.17200
C1972       C  0.73790183  0.38750717  0.07055136    -0.30500
H1973       H  0.74562430  0.39042166  0.04034161     0.17200
H1974       H  0.61238711  0.27293979  0.06073172     0.17200
H1975       H  0.63791680  0.39554738  0.18670665     0.17200
H1976       H  0.62362896  0.28375503  0.17799961     0.17200
C1977       C  0.67570209  0.36101191  0.19849375    -0.04300
C1978       C  0.67862153  0.33772823  0.21423230    -0.01400
C1979       C  0.67461451  0.33470052  0.25448672     0.03600
C1980       C  0.66714270  0.35460353  0.28094094    -0.04300
C1981       C  0.67511716  0.38443822  0.26504481    -0.01400
C1982       C  0.68005687  0.38786382  0.22463646     0.03600
C1983       C  0.68980588  0.31958282  0.18921585     0.38200
C1984       C  0.68383750  0.41437659  0.28960593     0.38200
C1985       C  0.69697856  0.42187798  0.21051749     0.36600
C1986       C  0.68336800  0.31467454  0.26824955     0.36600
N1987       N  0.71106046  0.44933176  0.19972937    -0.38200
N1988       N  0.69100068  0.29907457  0.27883589    -0.38200
N1989       N  0.69131053  0.43868115  0.30874808    -0.37600
N1990       N  0.69875479  0.30512709  0.16928958    -0.37600
C1991       C  0.66347993  0.34875604  0.44888266    -0.04300
C1992       C  0.66492957  0.32529140  0.46685776    -0.01400
C1993       C  0.66749985  0.32832879  0.50701290     0.03600
C1994       C  0.66914369  0.35307838  0.03046486    -0.04300
C1995       C  0.67728003  0.38268680  0.51125850    -0.01400
C1996       C  0.67504021  0.38006062  0.47117375     0.03600
C1997       C  0.67075361  0.30230770  0.44376520     0.38200
C1998       C  0.69999152  0.41624921  0.02948990     0.38200
C1999       C  0.69075966  0.41164674  0.45187599     0.36600
C2000       C  0.67837376  0.31055985  0.52176301     0.36600
N2001       N  0.70435300  0.43693922  0.43617953    -0.38200
N2002       N  0.68880713  0.29793745  0.53334519    -0.38200
N2003       N  0.71771855  0.44361883  0.04375019    -0.37600
N2004       N  0.67613205  0.28407271  0.42624836    -0.37600
C2005       C  0.55955853  0.16083999  0.14422909    -0.04300
C2006       C  0.57725417  0.17269863  0.10796878    -0.01400
C2007       C  0.59243149  0.20686361  0.09845510     0.03600
C2008       C  0.58886763  0.22922013  0.12492034    -0.04300
C2009       C  0.56750501  0.21537580  0.15957355    -0.01400
C2010       C  0.55499279  0.18242285  0.17014838     0.03600
C2011       C  0.58120398  0.15013881  0.08087135     0.38200
C2012       C  0.55738207  0.23460195  0.18408223     0.38200
C2013       C  0.53696444  0.17050604  0.20764269     0.36600
C2014       C  0.61160830  0.21814676  0.06143540     0.36600
N2015       N  0.52280036  0.16106392  0.23760824    -0.38200
N2016       N  0.62589657  0.22521832  0.03114204    -0.38200
N2017       N  0.54920513  0.24981317  0.20377003    -0.37600
N2018       N  0.58449894  0.13237482  0.05902843    -0.37600
C2019       C  0.86874397  0.45285043  0.09170884    -0.04300
C2020       C  0.85496823  0.47177907  0.09876965    -0.01400
C2021       C  0.81897773  0.45429595  0.09887069     0.03600
C2022       C  0.79676008  0.41838806  0.09066406    -0.04300
C2023       C  0.81065129  0.40033919  0.07857236    -0.01400
C2024       C  0.84631534  0.41715491  0.07959202     0.03600
C2025       C  0.87679319  0.50871355  0.10812053     0.38200
C2026       C  0.78766751  0.36383716  0.06720251     0.38200
C2027       C  0.85902005  0.39664909  0.07125553     0.36600
C2028       C  0.80422319  0.47284910  0.10858173     0.36600
N2029       N  0.86929429  0.38040838  0.06629448    -0.38200
N2030       N  0.79232570  0.48754817  0.11629097    -0.38200
N2031       N  0.76946192  0.33476270  0.05784959    -0.37600
N2032       N  0.89373674  0.53833098  0.11490056    -0.37600
C2033       C  0.58232800  0.44823658  0.15090183    -0.04300
C2034       C  0.56965611  0.41810414  0.17002994    -0.01400
C2035       C  0.58533728  0.40126489  0.16105130     0.03600
C2036       C  0.61595479  0.41594872  0.13601259    -0.04300
C2037       C  0.63061195  0.44757667  0.11966355    -0.01400
C2038       C  0.61347203  0.46309665  0.12601093     0.03600
C2039       C  0.54158469  0.40479796  0.20044711     0.38200
C2040       C  0.66464150  0.46555553  0.09843773     0.38200
C2041       C  0.62947325  0.49563243  0.10858715     0.36600
C2042       C  0.56966656  0.36835803  0.17738417     0.36600
N2043       N  0.64388276  0.02302538  0.09957087    -0.38200
N2044       N  0.55718260  0.34209992  0.19036355    -0.38200
N2045       N  0.69208816  0.48093102  0.08207029    -0.37600
N2046       N  0.01932635  0.39408278  0.22390810    -0.37600
C2047       C  0.56243581  0.15004695  0.35744289    -0.04300
C2048       C  0.59908127  0.17625618  0.35627713    -0.01400
C2049       C  0.61377573  0.21120753  0.35184663     0.03600
C2050       C  0.59254981  0.22116861  0.35039950    -0.04300
C2051       C  0.55678406  0.19545870  0.34808315    -0.01400
C2052       C  0.54162216  0.15996876  0.35139259     0.03600
C2053       C  0.62233672  0.16827902  0.36106668     0.38200
C2054       C  0.53570661  0.20584781  0.34278391     0.38200
C2055       C  0.50436866  0.13440682  0.35098010     0.36600
C2056       C  0.65115747  0.23736296  0.34878842     0.36600
N2057       N  0.97454114  0.11141237  0.34329685    -0.38200
N2058       N  0.68104659  0.25783717  0.34588489    -0.38200
N2059       N  0.51895156  0.21414293  0.33810798    -0.37600
N2060       N  0.64141515  0.16278001  0.36545098    -0.37600
C2061       C  0.78702957  0.41675332  0.35187027    -0.04300
C2062       C  0.80008882  0.39763028  0.34525800    -0.01400
C2063       C  0.83489873  0.41391354  0.35002343     0.03600
C2064       C  0.85680143  0.44970620  0.36083228    -0.04300
C2065       C  0.84482337  0.46975860  0.36091289    -0.01400
C2066       C  0.80947932  0.45293673  0.35789179     0.03600
C2067       C  0.77709662  0.36092352  0.33484433     0.38200
C2068       C  0.86726557  0.00606426  0.36857643     0.38200
C2069       C  0.79566029  0.47238299  0.36251376     0.36600
C2070       C  0.84799277  0.39373709  0.34364194     0.36600
N2071       N  0.78586557  0.98890545  0.36187614    -0.38200
N2072       N  0.85812446  0.37735811  0.33843686    -0.38200
N2073       N  0.88520577  0.03582722  0.37429265    -0.37600
N2074       N  0.75875822  0.33169346  0.32620664    -0.37600
C2075       C  0.55433549  0.42057941  0.40809538    -0.04300
C2076       C  0.58006164  0.43059327  0.43145790    -0.01400
C2077       C  0.59843706  0.41651295  0.42438540     0.03600
C2078       C  0.59036123  0.39082188  0.39497803    -0.04300
C2079       C  0.56224923  0.37825248  0.37419630    -0.01400
C2080       C  0.54444026  0.39308677  0.38060444     0.03600
C2081       C  0.58799978  0.45531760  0.46335830     0.38200
C2082       C  0.55082804  0.34921137  0.34700047     0.38200
C2083       C  0.51438767  0.37830947  0.36064765     0.36600
C2084       C  0.62626567  0.42966011  0.44737708     0.36600
N2085       N  0.98991325  0.36382199  0.34180810    -0.38200
N2086       N  0.64777038  0.44081620  0.46703487    -0.38200
N2087       N  0.54181201  0.32610885  0.32518641    -0.37600
N2088       N  0.59457520  0.47431988  0.48953133    -0.37600
C2089       C  0.90474174  0.06205546  0.19743176    -0.04300
C2090       C  0.86995276  0.04389434  0.21409388    -0.01400
C2091       C  0.85416425  0.06071990  0.22097239     0.03600
C2092       C  0.87356119  0.09596780  0.21314194    -0.04300
C2093       C  0.90802598  0.11404123  0.19710687    -0.01400
C2094       C  0.92248986  0.09647006  0.18611745     0.03600
C2095       C  0.84964561  0.00739988  0.22142545     0.38200
C2096       C  0.92946346  0.15132763  0.19414686     0.38200
C2097       C  0.95410887  0.11346636  0.16042614     0.36600
C2098       C  0.81809535  0.04216701  0.23622329     0.36600
N2099       N  0.48242310  0.13063955  0.14482950    -0.38200
N2100       N  0.78926704  0.02754577  0.24830599    -0.38200
N2101       N  0.94767073  0.18124226  0.19283953    -0.37600
N2102       N  0.84040589  0.48684166  0.24717690    -0.37600
C2103       C  0.89521813  0.28382144  0.22869395    -0.04300
C2104       C  0.88036002  0.30091650  0.24230939    -0.01400
C2105       C  0.89743270  0.33550840  0.23316173     0.03600
C2106       C  0.92905432  0.35288955  0.20940486    -0.04300
C2107       C  0.94227779  0.33479923  0.19304325    -0.01400
C2108       C  0.92639770  0.30101652  0.20414411     0.03600
C2109       C  0.84593833  0.28183650  0.26260251     0.38200
C2110       C  0.96912811  0.34904069  0.16130245     0.38200
C2111       C  0.94151052  0.28345142  0.18922370     0.36600
C2112       C  0.88100514  0.35224563  0.24550752     0.36600
N2113       N  0.95418669  0.27001211  0.17720268    -0.38200
N2114       N  0.86759953  0.36537734  0.25446480    -0.38200
N2115       N  0.98979674  0.35995028  0.13526053    -0.37600
N2116       N  0.81817962  0.26686481  0.27817553    -0.37600
C2117       C  0.69449225  0.08859588  0.26031202    -0.04300
C2118       C  0.68234690  0.10840115  0.27142056    -0.01400
C2119       C  0.64703370  0.09337134  0.27053096     0.03600
C2120       C  0.62293640  0.05769092  0.25953161    -0.04300
C2121       C  0.63489547  0.03715239  0.25280850    -0.01400
C2122       C  0.67068955  0.05288012  0.25169429     0.03600
C2123       C  0.70688191  0.14513565  0.28077332     0.38200
C2124       C  0.61110119  0.00001726  0.24615657     0.38200
C2125       C  0.68348358  0.03271070  0.23985727     0.36600
C2126       C  0.63630186  0.11556861  0.27894986     0.36600
N2127       N  0.69358792  0.01655658  0.22997555    -0.38200
N2128       N  0.62823736  0.13370342  0.28472942    -0.38200
N2129       N  0.59277867  0.97014080  0.24201452    -0.37600
N2130       N  0.72614642  0.17452422  0.28814181    -0.37600
C2131       C  0.91944247  0.07578151  0.45316184    -0.04300
C2132       C  0.88355855  0.05334583  0.46547263    -0.01400
C2133       C  0.85931960  0.06135692  0.96748598     0.03600
C2134       C  0.87991730  0.10091903  0.46542343    -0.04300
C2135       C  0.91584204  0.12345735  0.45380889    -0.01400
C2136       C  0.93568170  0.11102907  0.44815957     0.03600
C2137       C  0.86156633  0.01167400  0.96382701     0.38200
C2138       C  0.93252987  0.15980453  0.44921684     0.38200
C2139       C  0.97305076  0.13487891  0.43953342     0.36600
C2140       C  0.82213766  0.03833376  0.97755649     0.36600
N2141       N  0.00293537  0.15407700  0.43344538    -0.38200
N2142       N  0.79247364  0.02000830  0.98598647    -0.38200
N2143       N  0.94596615  0.18887469  0.44569758    -0.37600
N2144       N  0.84822006  0.48184170  0.96631866    -0.37600
C2145       C  0.89275504  0.28952250  0.50006528    -0.04300
C2146       C  0.92556834  0.31202659  0.00415108    -0.01400
C2147       C  0.94141528  0.35100582  0.50632681     0.03600
C2148       C  0.92062061  0.36038278  0.49820365    -0.04300
C2149       C  0.88441317  0.33324564  0.49579485    -0.01400
C2150       C  0.87070271  0.29834180  0.49836488     0.03600
C2151       C  0.94696433  0.30132219  0.00674087     0.38200
C2152       C  0.86053822  0.34008542  0.48984625     0.38200
C2153       C  0.83355888  0.27117340  0.50002256     0.36600
C2154       C  0.97708258  0.37293619  0.00757940     0.36600
N2155       N  0.80381041  0.24989732  0.50242308    -0.38200
N2156       N  0.50474205  0.39411788  0.01527182    -0.38200
N2157       N  0.84093451  0.34472906  0.48493125    -0.37600
N2158       N  0.96392020  0.29261113  0.00872938    -0.37600
C2159       C  0.63518908  0.05702381  0.47593372    -0.04300
C2160       C  0.65419092  0.04734855  0.45214012    -0.01400
C2161       C  0.68794814  0.06135328  0.45951220     0.03600
C2162       C  0.70364193  0.08671721  0.48929543    -0.04300
C2163       C  0.67937166  0.08694149  0.01838098    -0.01400
C2164       C  0.64601858  0.07339251  0.01028332     0.03600
C2165       C  0.64019765  0.02532994  0.41828357     0.38200
C2166       C  0.69228189  0.10844756  0.05267247     0.38200
C2167       C  0.62783055  0.08560805  0.03287381     0.36600
C2168       C  0.70682327  0.05017719  0.43596492     0.36600
N2169       N  0.61477400  0.09692441  0.05091123    -0.38200
N2170       N  0.72164330  0.04104605  0.41702400    -0.38200
N2171       N  0.70116182  0.12472936  0.08083820    -0.37600
N2172       N  0.62921078  0.00806826  0.39108398    -0.37600
C2173       C  0.83238057  0.16783593  0.40187482    -0.04300
C2174       C  0.84650637  0.15535444  0.37362453    -0.01400
C2175       C  0.83428317  0.14423521  0.33752425     0.03600
C2176       C  0.82541431  0.16203533  0.32061845    -0.01700
C2177       C  0.81585425  0.18015503  0.34710853    -0.01400
C2178       C  0.81703719  0.18093602  0.38733816     0.03600
C2179       C  0.88167918  0.16768301  0.37452993     0.38200
C2180       C  0.80207087  0.19560864  0.33375923     0.38200
C2181       C  0.80260242  0.19555812  0.41311261     0.36600
C2182       C  0.81473476  0.10727861  0.32966917     0.36600
N2183       N  0.79037036  0.20692953  0.43302407    -0.38200
N2184       N  0.79871487  0.07753351  0.32418165    -0.38200
N2185       N  0.79077476  0.20793935  0.32363188    -0.37600
N2186       N  0.91003123  0.17764868  0.37448369    -0.37600
C2187       C  0.82072243  0.15636794  0.15282995    -0.04300
C2188       C  0.79862177  0.16030227  0.13659463    -0.01400
C2189       C  0.80146766  0.16306494  0.09640963     0.03600
C2190       C  0.82487950  0.15979362  0.07052483    -0.04300
C2191       C  0.85221077  0.16530666  0.08760749    -0.01400
C2192       C  0.85065971  0.16484142  0.12787115     0.03600
C2193       C  0.77682456  0.16741758  0.16116539     0.38200
C2194       C  0.88449086  0.17652222  0.06474557     0.38200
C2195       C  0.88271350  0.17976395  0.14360836     0.36600
C2196       C  0.78543099  0.17623927  0.08278361     0.36600
N2197       N  0.90880164  0.19282294  0.15565742    -0.38200
N2198       N  0.77380495  0.18800689  0.07197538    -0.38200
N2199       N  0.91046225  0.18549616  0.04704006    -0.37600
N2200       N  0.75954399  0.17353021  0.18031974    -0.37600
C2201       C  0.82866144  0.16285941  0.52509127     0.31100
C2202       C  0.82837202  0.16275564  0.94711185     0.31100
C2203       C  0.84204120  0.14440283  0.49948720    -0.05100
C2204       C  0.79405424  0.14546984  0.50807135    -0.05900
C2205       C  0.85174975  0.19899018  0.50838631    -0.05800
C2206       C  0.84040397  0.14260184  0.95987005    -0.05100
C2207       C  0.79252817  0.14435260  0.97027847    -0.05900
C2208       C  0.84972995  0.19732481  0.97011147    -0.05800
C2209       C  0.85066905  0.12257047  0.94286683    -0.31200
N2210       N  0.85644896  0.11040272  0.97011943     0.15300
C2211       C  0.85203702  0.12458652  0.50553540    -0.31200
H2212       H  0.85437641  0.11897534  0.53257262     0.17300
C2213       C  0.75933545  0.12153728  0.96048840    -0.30200
N2214       N  0.74087854  0.10905843  0.48922151     0.14000
C2215       C  0.75941819  0.12027733  0.51950239    -0.30200
C2216       C  0.86691725  0.23157932  0.96301505    -0.30500
N2217       N  0.87955570  0.25379448  0.49519465     0.14500
H2218       H  0.87067815  0.24181312  0.93606552     0.17200
C2219       C  0.86798919  0.23228937  0.52373598    -0.30500
H2220       H  0.86907247  0.23999964  0.55362155     0.17200
H2221       H  0.74859371  0.11012967  0.54755577     0.17200
H2222       H  0.85390521  0.11686086  0.91297837     0.17200
H2223       H  0.75165865  0.11680465  0.93222836     0.17200
C2224       C  0.82125338  0.15726458  0.69739591     0.31100
C2225       C  0.82437010  0.16139415  0.77646150     0.31100
C2226       C  0.83734551  0.14189438  0.71114904    -0.05100
C2227       C  0.84122003  0.19335286  0.71739805    -0.05900
C2228       C  0.78620400  0.13740532  0.72296620    -0.05800
C2229       C  0.84014381  0.14500595  0.75044823    -0.05100
C2230       C  0.84329161  0.19607969  0.75666589    -0.05900
C2231       C  0.78788369  0.14002489  0.76253808    -0.05800
C2232       C  0.85676098  0.13108964  0.75504681    -0.31200
N2233       N  0.86077562  0.11708301  0.72137888     0.15300
C2234       C  0.84903911  0.12326329  0.69438955    -0.31200
H2235       H  0.84930239  0.11496459  0.66477513     0.17300
C2236       C  0.86398275  0.23139802  0.76636421    -0.30200
N2237       N  0.87393101  0.24913836  0.73439382     0.14000
C2238       C  0.86003104  0.22611974  0.70475549    -0.30200
C2239       C  0.75418503  0.12102704  0.77955128    -0.30500
N2240       N  0.73238746  0.10646573  0.75198216     0.14500
H2241       H  0.74606256  0.11859224  0.80971058     0.17200
C2242       C  0.75143961  0.11529820  0.71762248    -0.30500
H2243       H  0.74048188  0.10680500  0.69078327     0.17200
H2244       H  0.86371116  0.23293856  0.67581459     0.17200
H2245       H  0.86631938  0.13153942  0.78040016     0.17200
H2246       H  0.87153206  0.24328045  0.79427457     0.17200
O2247       O  0.53292409  0.44540951  0.88241748    -0.74200
O2248       O  0.52967642  0.44498111  0.94639351    -0.53100
C2249       C  0.53736147  0.43728112  0.91261588     0.79500
O2250       O  0.56288541  0.11013834  0.89191923    -0.58800
O2251       O  0.51574586  0.08680709  0.86072527    -0.51900
C2252       C  0.54563089  0.11290263  0.87106704     0.71500
O2253       O  0.60087435  0.06155383  0.94669420    -0.73400
O2254       O  0.57121758  0.01212701  0.97962272    -0.54000
C2255       C  0.59916556  0.04085805  0.96736539     0.77500
O2256       O  0.49980908  0.49464295  0.81711757    -0.58500
O2257       O  0.95508096  0.99564374  0.82634190    -0.51700
C2258       C  0.96868347  0.98157004  0.80929598     0.74100
Zr2259     Zr  0.50875356  0.47392575  0.86678921     2.54700
O2260       O  0.55625534  0.98445607  0.81621095    -0.79100
O2261       O  0.97296121  0.41749541  0.82979173    -0.92500
Zr2262     Zr  0.56141009  0.06564414  0.91885741     2.64700
O2263       O  0.60727161  0.08460782  0.86657356    -0.97500
O2264       O  0.59998723  0.12002739  0.95418633    -0.79500
O2265       O  0.54617441  0.00860921  0.91280445    -0.82900
O2266       O  0.52712489  0.03271332  0.86886445    -2.17600
O2267       O  0.88791170  0.44204755  0.89668827    -0.66300
O2268       O  0.91527919  0.49332801  0.86849823    -0.50900
C2269       C  0.88876234  0.46207933  0.87569243     0.72500
O2270       O  0.97106499  0.99499158  0.52825129    -0.59200
O2271       O  0.50663815  0.48645275  0.53888210    -0.51200
C2272       C  0.99765671  0.50631744  0.54495801     0.74300
O2273       O  0.94196325  0.05116935  0.97775067    -0.70600
O2274       O  0.94633496  0.05426240  0.91377364    -0.49300
C2275       C  0.93611670  0.05836281  0.94810895     0.75700
O2276       O  0.91783807  0.39782336  0.96889642    -0.65900
O2277       O  0.96803633  0.41861869  0.99159742    -0.53100
C2278       C  0.93613404  0.39393387  0.98620097     0.74000
Zr2279     Zr  0.92381194  0.44198502  0.93639736     2.77500
O2280       O  0.87846006  0.43104452  0.98651143    -0.96700
O2281       O  0.88509976  0.38436479  0.90727480    -0.77500
Zr2282     Zr  0.97636318  0.03335998  0.99066026     2.70100
O2283       O  0.95101147  0.54691055  0.54747459    -0.78700
O2284       O  0.52690039  0.09651571  0.51429721    -0.97800
Zr2285     Zr  0.50953887  0.47884940  0.97093437     2.21500
Zr2286     Zr  0.97235122  0.02589277  0.88610261     2.11100
O2287       O  0.93951964  0.49890328  0.94265452    -2.46500
O2288       O  0.95909867  0.47559638  0.98526244    -0.78500
O2289       O  0.95854101  0.46981728  0.88114857    -0.70700
O2290       O  0.52899337  0.03820389  0.97589045    -2.31700
O2291       O  0.97379659  0.44337518  0.92011223    -2.27900
O2292       O  0.51110063  0.06361191  0.93400870    -0.72500
H2293       H  0.54110337  0.04659388  0.84701749     0.79500
H2294       H  0.54788121  0.05509322  0.49246063     0.80600
H2295       H  0.91796869  0.49601811  0.94686234     0.82800
H2296       H  0.96760898  0.42030656  0.91760620     0.80400
H2297       H  0.60015102  0.11323232  0.97895327     0.43500
H2298       H  0.53642469  0.11196005  0.49288580     0.42400
H2299       H  0.92612474  0.53089615  0.54334111     0.42100
H2300       H  0.89010476  0.45186072  0.00392663     0.40000
H2301       H  0.90078439  0.37936878  0.89293405     0.43200
H2302       H  0.96140918  0.39962272  0.84893247     0.38000
H2303       H  0.57786685  0.00086463  0.82867403     0.44100
H2304       H  0.62850660  0.09470012  0.87880838     0.40500
H2305       H  0.86284261  0.43267984  0.97425598     0.45400
H2306       H  0.48749273  0.41672286  0.81391352     0.44100
H2307       H  0.60202828  0.06291282  0.85344984     0.44300
H2308       H  0.01104574  0.10075058  0.53135581     0.44600
O2309       O  0.56407036  0.48118484  0.63393470    -0.74200
O2310       O  0.54637710  0.46338939  0.69421933    -0.53100
C2311       C  0.56302654  0.46603846  0.66158263     0.79500
O2312       O  0.55696255  0.12327159  0.67848314    -0.58800
O2313       O  0.51644545  0.10180135  0.63715256    -0.51900
C2314       C  0.54240988  0.12687133  0.65457124     0.71500
O2315       O  0.58967955  0.06835142  0.72937446    -0.73400
O2316       O  0.56336589  0.01365450  0.74708850    -0.54000
C2317       C  0.58985455  0.04592481  0.74435410     0.77500
O2318       O  0.54630508  0.54747364  0.57619256    -0.58500
O2319       O  0.00538464  0.05269284  0.57511304    -0.51700
C2320       C  0.01876713  0.03754664  0.56171186     0.74100
Zr2321     Zr  0.54283605  0.51346832  0.62266482     2.54700
O2322       O  0.60636725  0.05917706  0.62095518    -0.79100
O2323       O  0.05977030  0.49499923  0.55735431    -0.92500
Zr2324     Zr  0.55099629  0.07535779  0.70436387     2.64700
O2325       O  0.61005526  0.12695249  0.68862910    -0.97500
O2326       O  0.55128483  0.10397869  0.76584674    -0.79500
O2327       O  0.55575308  0.03023119  0.67989917    -0.82900
O2328       O  0.53943464  0.05892821  0.64086564    -2.17600
O2329       O  0.90402706  0.44823726  0.61688360    -0.66300
O2330       O  0.92726737  0.50392991  0.60743152    -0.50900
C2331       C  0.90270804  0.47098682  0.60495199     0.72500
O2332       O  0.93075640  0.95297301  0.76279638    -0.59200
O2333       O  0.46638195  0.44337313  0.77006897    -0.51200
C2334       C  0.95385703  0.45440284  0.78124844     0.74300
O2335       O  0.92292900  0.03307263  0.72239162    -0.70600
O2336       O  0.94448217  0.05461899  0.66354198    -0.49300
C2337       C  0.92598529  0.04991600  0.69512801     0.75700
O2338       O  0.93133387  0.39526762  0.67614917    -0.65900
O2339       O  0.97587121  0.41459774  0.71050352    -0.53100
C2340       C  0.94706039  0.39040039  0.69672653     0.74000
Zr2341     Zr  0.94097529  0.44405971  0.64913940     2.77500
O2342       O  0.88102462  0.39692967  0.66989680    -0.96700
O2343       O  0.94053823  0.41498984  0.58802936    -0.77500
Zr2344     Zr  0.94892595  0.00682581  0.73894270     2.70100
O2345       O  0.89438119  0.47931464  0.77916954    -0.78700
O2346       O  0.47091470  0.05096813  0.79197554    -0.97800
Zr2347     Zr  0.50864595  0.47907393  0.71966266     2.21500
Zr2348     Zr  0.97982909  0.03703204  0.63875327     2.11100
O2349       O  0.93624555  0.48893064  0.67619512    -2.46500
O2350       O  0.95429900  0.46233389  0.71125162    -0.78500
O2351       O  0.98566815  0.49329682  0.61637285    -0.70700
O2352       O  0.50912272  0.02662588  0.74107857    -2.31700
O2353       O  0.99853044  0.46185344  0.64984981    -2.27900
O2354       O  0.49419775  0.05783208  0.70158635    -0.72500
H2355       H  0.55628221  0.08014840  0.62770877     0.79500
H2356       H  0.51647426  0.03418889  0.76613330     0.80600
H2357       H  0.91326754  0.48228209  0.67584518     0.82800
H2358       H  0.99904105  0.44266831  0.64044100     0.80400
H2359       H  0.55758660  0.09504501  0.78332954     0.43500
H2360       H  0.48152128  0.07335912  0.78075646     0.42400
H2361       H  0.87837928  0.45634062  0.76644259     0.42100
H2362       H  0.87104129  0.40864546  0.68293083     0.40000
H2363       H  0.95522972  0.40777480  0.58980328     0.43200
H2364       H  0.04830440  0.46999710  0.55931030     0.38000
H2365       H  0.60971481  0.08120540  0.61983152     0.44100
H2366       H  0.61634100  0.14181347  0.71224381     0.40500
H2367       H  0.86941188  0.38616892  0.64634388     0.45400
H2368       H  0.57971889  0.49949983  0.56260776     0.44100
H2369       H  0.62496018  0.11933770  0.68529787     0.44300
H2370       H  0.94799181  0.04279457  0.80859445     0.44600
C2371       C  0.66122528  0.34912898  0.82602581     0.31100
C2372       C  0.66101511  0.34597012  0.90437957     0.31100
C2373       C  0.64472364  0.36386638  0.85400001    -0.05100
C2374       C  0.64011280  0.31222355  0.84201424    -0.05900
C2375       C  0.69616339  0.36753172  0.84130433    -0.05800
C2376       C  0.64435272  0.36179266  0.89310893    -0.05100
C2377       C  0.64001362  0.31075883  0.88138460    -0.05900
C2378       C  0.69611447  0.36593304  0.88005121    -0.05800
C2379       C  0.62159457  0.36785282  0.91207484    -0.31200
N2380       N  0.60985260  0.37590657  0.88676669     0.15300
C2381       C  0.62306310  0.37251042  0.85131667    -0.31200
H2382       H  0.61709874  0.37575338  0.82520528     0.17300
C2383       C  0.61781401  0.27612394  0.88954836    -0.30200
N2384       N  0.60588178  0.25660584  0.85703339     0.14000
C2385       C  0.61838557  0.27816600  0.82815868    -0.30200
C2386       C  0.73006580  0.38417537  0.88681868    -0.30500
N2387       N  0.75025340  0.39668165  0.85357455     0.14500
H2388       H  0.73951684  0.38781098  0.91373675     0.17200
C2389       C  0.73007893  0.38673278  0.82553304    -0.30500
H2390       H  0.73944747  0.39266103  0.79598046     0.17200
H2391       H  0.61287186  0.26952208  0.79902206     0.17200
H2392       H  0.61341556  0.36553643  0.94222048     0.17200
H2393       H  0.61120023  0.26544799  0.91701991     0.17200
C2394       C  0.66761968  0.35572509  0.57614536     0.31100
C2395       C  0.67204577  0.36041835  0.65478371     0.31100
C2396       C  0.65643822  0.37644594  0.60164350    -0.05100
C2397       C  0.64436695  0.32104426  0.59732545    -0.05900
C2398       C  0.70358695  0.37271910  0.58898168    -0.05800
C2399       C  0.65848638  0.37864457  0.64109734    -0.05100
C2400       C  0.64706930  0.32394417  0.63637951    -0.05900
C2401       C  0.70585173  0.37509971  0.62811981    -0.05800
C2402       C  0.64227116  0.39303318  0.65820122    -0.31200
N2403       N  0.63182807  0.40080038  0.63112128     0.15300
C2404       C  0.63951151  0.39004527  0.59673132    -0.31200
H2405       H  0.63206383  0.39087428  0.57029241     0.17300
C2406       C  0.62393643  0.29136673  0.65008326    -0.30200
N2407       N  0.60708476  0.26799642  0.62148851     0.14000
C2408       C  0.61870993  0.28602784  0.58922265    -0.30200
C2409       C  0.74052419  0.39353380  0.63264661    -0.30500
N2410       N  0.75903081  0.40209884  0.59785563     0.14500
H2411       H  0.75161992  0.40078316  0.65928979     0.17200
C2412       C  0.73685704  0.38953332  0.57106845    -0.30500
H2413       H  0.74452253  0.39311172  0.54091622     0.17200
H2414       H  0.60922173  0.27473252  0.56183561     0.17200
H2415       H  0.63706720  0.39647981  0.68834867     0.17200
H2416       H  0.62033525  0.28487715  0.67906964     0.17200
C2417       C  0.67452630  0.36094150  0.69905556    -0.04300
C2418       C  0.67653749  0.33671679  0.71416933    -0.01400
C2419       C  0.67226756  0.33298103  0.75430959     0.03600
C2420       C  0.66591049  0.35341643  0.78129069    -0.04300
C2421       C  0.67483833  0.38391386  0.76594638    -0.01400
C2422       C  0.67953264  0.38773561  0.72565075     0.03600
C2423       C  0.68703107  0.31818305  0.68869945     0.38200
C2424       C  0.68478683  0.41395952  0.79095254     0.38200
C2425       C  0.69678186  0.42190596  0.71183322     0.36600
C2426       C  0.67961228  0.31150980  0.76737506     0.36600
N2427       N  0.71127942  0.44942418  0.70101023    -0.38200
N2428       N  0.68610302  0.29469011  0.77729447    -0.38200
N2429       N  0.69336482  0.43830802  0.81056529    -0.37600
N2430       N  0.69550631  0.30337239  0.66866322    -0.37600
C2431       C  0.66482323  0.34830669  0.94858390    -0.04300
C2432       C  0.66620344  0.32458532  0.96612092    -0.01400
C2433       C  0.66870936  0.32724702  0.00618546     0.03600
C2434       C  0.66749898  0.35402792  0.53114599    -0.04300
C2435       C  0.67948917  0.38210721  0.01085678    -0.01400
C2436       C  0.67680305  0.37963329  0.97095489     0.03600
C2437       C  0.67191251  0.30161742  0.94277811     0.38200
C2438       C  0.69695219  0.41685846  0.52988981     0.38200
C2439       C  0.69217370  0.41124840  0.95190606     0.36600
C2440       C  0.67887166  0.30873115  0.02070052     0.36600
N2441       N  0.70541746  0.43659814  0.93647468    -0.38200
N2442       N  0.68853589  0.29532195  0.03216647    -0.38200
N2443       N  0.71402234  0.44430410  0.54418698    -0.37600
N2444       N  0.67718292  0.28328793  0.92531862    -0.37600
C2445       C  0.55713111  0.16256569  0.64517348    -0.04300
C2446       C  0.57513130  0.17488179  0.60913687    -0.01400
C2447       C  0.58949677  0.20878138  0.59965105     0.03600
C2448       C  0.58518395  0.23065684  0.62594792    -0.04300
C2449       C  0.56358032  0.21648068  0.66044432    -0.01400
C2450       C  0.55117837  0.18340478  0.67077135     0.03600
C2451       C  0.58036830  0.15314258  0.58218462     0.38200
C2452       C  0.55354564  0.23569614  0.68518706     0.38200
C2453       C  0.53194669  0.17060817  0.70761675     0.36600
C2454       C  0.60926697  0.22066740  0.56300081     0.36600
N2455       N  0.51667984  0.16035521  0.73700780    -0.38200
N2456       N  0.62425553  0.22858824  0.53309944    -0.38200
N2457       N  0.54553257  0.25097151  0.70505304    -0.37600
N2458       N  0.58486312  0.13618072  0.56038637    -0.37600
C2459       C  0.86858915  0.45699792  0.59140657    -0.04300
C2460       C  0.85428672  0.47542156  0.59908915    -0.01400
C2461       C  0.81809947  0.45745158  0.59923368     0.03600
C2462       C  0.79618958  0.42147617  0.59090327    -0.04300
C2463       C  0.81077806  0.40419818  0.57774370    -0.01400
C2464       C  0.84670612  0.42171419  0.57794864     0.03600
C2465       C  0.87599918  0.51242636  0.60792163     0.38200
C2466       C  0.78833709  0.36783038  0.56576460     0.38200
C2467       C  0.86079537  0.40273887  0.56602637     0.36600
C2468       C  0.80292503  0.47562318  0.60833493     0.36600
N2469       N  0.87263815  0.38807607  0.55750427    -0.38200
N2470       N  0.79060525  0.48995751  0.61528479    -0.38200
N2471       N  0.77045636  0.33883448  0.55601419    -0.37600
N2472       N  0.89290979  0.54211583  0.61419769    -0.37600
C2473       C  0.58167484  0.44993536  0.65502345    -0.04300
C2474       C  0.56846047  0.41914842  0.67309625    -0.01400
C2475       C  0.58377095  0.40198444  0.66319194     0.03600
C2476       C  0.61449124  0.41687263  0.63825278    -0.04300
C2477       C  0.62941028  0.44890138  0.62265020    -0.01400
C2478       C  0.61286832  0.46500341  0.63026002     0.03600
C2479       C  0.54023310  0.40551795  0.70338636     0.38200
C2480       C  0.66303150  0.46665874  0.60062627     0.38200
C2481       C  0.62967908  0.49847371  0.61457108     0.36600
C2482       C  0.56746191  0.36843144  0.67823506     0.36600
N2483       N  0.64077781  0.02022372  0.58993200    -0.38200
N2484       N  0.55427709  0.34158433  0.69014310    -0.38200
N2485       N  0.69011241  0.48210496  0.58347415    -0.37600
N2486       N  0.01836041  0.39348178  0.72341201    -0.37600
C2487       C  0.56136098  0.14912936  0.85996818    -0.04300
C2488       C  0.59798808  0.17547934  0.85821730    -0.01400
C2489       C  0.61244549  0.21036073  0.85359350     0.03600
C2490       C  0.59100477  0.22022013  0.85304792    -0.04300
C2491       C  0.55513647  0.19447473  0.85183085    -0.01400
C2492       C  0.54028974  0.15895144  0.85437644     0.03600
C2493       C  0.62149844  0.16762743  0.86210469     0.38200
C2494       C  0.53366692  0.20495014  0.84868110     0.38200
C2495       C  0.50317255  0.13321733  0.85297600     0.36600
C2496       C  0.64980380  0.23660401  0.84927881     0.36600
N2497       N  0.97286195  0.11292039  0.85487278    -0.38200
N2498       N  0.67963430  0.25735108  0.84529831    -0.38200
N2499       N  0.51672781  0.21353209  0.84598250    -0.37600
N2500       N  0.64079952  0.16221308  0.86573327    -0.37600
C2501       C  0.78688477  0.41479241  0.84894760    -0.04300
C2502       C  0.80009323  0.39580502  0.84236418    -0.01400
C2503       C  0.83477671  0.41213866  0.84768098     0.03600
C2504       C  0.85615442  0.44763299  0.85968619    -0.04300
C2505       C  0.84409026  0.46766343  0.86021492    -0.01400
C2506       C  0.80909624  0.45091464  0.85548364     0.03600
C2507       C  0.77730301  0.35912232  0.83179714     0.38200
C2508       C  0.86706671  0.00378855  0.86403200     0.38200
C2509       C  0.79528335  0.47030593  0.85885658     0.36600
C2510       C  0.84821776  0.39227523  0.84125684     0.36600
N2511       N  0.78560603  0.98668738  0.85804790    -0.38200
N2512       N  0.85888072  0.37637741  0.83621800    -0.38200
N2513       N  0.88573076  0.03374747  0.86748244    -0.37600
N2514       N  0.75912039  0.32988326  0.82313660    -0.37600
C2515       C  0.55323420  0.41853508  0.90839888    -0.04300
C2516       C  0.57768513  0.42716955  0.93301007    -0.01400
C2517       C  0.59624325  0.41323497  0.92590555     0.03600
C2518       C  0.58884267  0.38815240  0.89595657    -0.04300
C2519       C  0.56160032  0.37651395  0.87417585    -0.01400
C2520       C  0.54462512  0.39221563  0.87960572     0.03600
C2521       C  0.58481655  0.45095678  0.96568372     0.38200
C2522       C  0.55017494  0.34757679  0.84681311     0.38200
C2523       C  0.51733607  0.38007924  0.85622546     0.36600
C2524       C  0.62411231  0.42640753  0.94888063     0.36600
N2525       N  0.98923669  0.36252085  0.84028880    -0.38200
N2526       N  0.64592911  0.43747619  0.96806251    -0.38200
N2527       N  0.54088546  0.32447062  0.82494237    -0.37600
N2528       N  0.59103672  0.46935612  0.99235923    -0.37600
C2529       C  0.90800778  0.06623238  0.70072406    -0.04300
C2530       C  0.87421761  0.04914531  0.72015666    -0.01400
C2531       C  0.85802268  0.06549074  0.72569184     0.03600
C2532       C  0.87659216  0.09991619  0.71511723    -0.04300
C2533       C  0.91072373  0.11759999  0.69807158    -0.01400
C2534       C  0.92507161  0.09988640  0.68741663     0.03600
C2535       C  0.85538762  0.01430810  0.73299347     0.38200
C2536       C  0.93216974  0.15481297  0.69457451     0.38200
C2537       C  0.95594693  0.11600623  0.66058264     0.36600
C2538       C  0.82231289  0.04703526  0.74223365     0.36600
N2539       N  0.47946071  0.13037723  0.64165458    -0.38200
N2540       N  0.79366858  0.03189964  0.75518149    -0.38200
N2541       N  0.95030096  0.18472279  0.69322454    -0.37600
N2542       N  0.83612800  0.48043494  0.74328697    -0.37600
C2543       C  0.89505848  0.28607828  0.73046922    -0.04300
C2544       C  0.88119816  0.30415317  0.74379802    -0.01400
C2545       C  0.89834110  0.33826397  0.73265665     0.03600
C2546       C  0.92918988  0.35433443  0.70756525    -0.04300
C2547       C  0.94209645  0.33561398  0.69278509    -0.01400
C2548       C  0.92613075  0.30238010  0.70578510     0.03600
C2549       C  0.84804037  0.28676687  0.76676676     0.38200
C2550       C  0.96881003  0.34849489  0.66093527     0.38200
C2551       C  0.94122605  0.28443849  0.69324346     0.36600
C2552       C  0.88281380  0.35590843  0.74453799     0.36600
N2553       N  0.95370067  0.27046358  0.68358117    -0.38200
N2554       N  0.87028979  0.36994976  0.75293438    -0.38200
N2555       N  0.98942636  0.35811993  0.63483322    -0.37600
N2556       N  0.82144508  0.27319531  0.78489550    -0.37600
C2557       C  0.69565403  0.08977543  0.75764952    -0.04300
C2558       C  0.68379997  0.10997994  0.76687498    -0.01400
C2559       C  0.64837859  0.09477074  0.76672548     0.03600
C2560       C  0.62424127  0.05899128  0.75626499    -0.04300
C2561       C  0.63602302  0.03826779  0.75055143    -0.01400
C2562       C  0.67170978  0.05385846  0.75041475     0.03600
C2563       C  0.70868356  0.14717049  0.77329325     0.38200
C2564       C  0.61218021  0.00110577  0.74404617     0.38200
C2565       C  0.68439623  0.03339590  0.74097941     0.36600
C2566       C  0.63735380  0.11669166  0.77603337     0.36600
N2567       N  0.69466713  0.01720557  0.73316244    -0.38200
N2568       N  0.62890161  0.13448148  0.78284125    -0.38200
N2569       N  0.59378947  0.97123179  0.73985148    -0.37600
N2570       N  0.72823989  0.17694804  0.77796532    -0.37600
C2571       C  0.91542831  0.07157374  0.95398915    -0.04300
C2572       C  0.87890672  0.04852646  0.96182991    -0.01400
C2573       C  0.86395509  0.06610375  0.47201484     0.03600
C2574       C  0.87599470  0.09688036  0.96384373    -0.04300
C2575       C  0.91245050  0.11982402  0.95608697    -0.01400
C2576       C  0.93219550  0.10734114  0.95210480     0.03600
C2577       C  0.86669483  0.01701174  0.47061126     0.38200
C2578       C  0.92965513  0.15651303  0.95331104     0.38200
C2579       C  0.96982401  0.13142768  0.94804605     0.36600
C2580       C  0.82741070  0.04367203  0.48560390     0.36600
N2581       N  0.99983977  0.15057436  0.94543409    -0.38200
N2582       N  0.79826617  0.02586373  0.49674220    -0.38200
N2583       N  0.94356042  0.18584447  0.95101180    -0.37600
N2584       N  0.85295869  0.48635880  0.46655871    -0.37600
C2585       C  0.89004840  0.28646852  0.00100378    -0.04300
C2586       C  0.92773765  0.31568091  0.50543544    -0.01400
C2587       C  0.94035388  0.34753923  0.00340834     0.03600
C2588       C  0.91962005  0.35764483  0.99743105    -0.04300
C2589       C  0.88299119  0.33124152  0.99738269    -0.01400
C2590       C  0.86855030  0.29612639  0.00007765     0.03600
C2591       C  0.94973840  0.30588982  0.50886331     0.38200
C2592       C  0.85951473  0.33918244  0.99348233     0.38200
C2593       C  0.83127992  0.26950736  0.00198218     0.36600
C2594       C  0.97683922  0.37699489  0.51543106     0.36600
N2595       N  0.80147756  0.24852712  0.00425222    -0.38200
N2596       N  0.50957919  0.39695499  0.51301897    -0.38200
N2597       N  0.84047229  0.34503119  0.99016115    -0.37600
N2598       N  0.96720549  0.29789553  0.51136655    -0.37600
C2599       C  0.63225988  0.05144289  0.97792044    -0.04300
C2600       C  0.65153060  0.04205182  0.95415113    -0.01400
C2601       C  0.68527948  0.05627710  0.96179347     0.03600
C2602       C  0.70029253  0.08088689  0.99228526    -0.04300
C2603       C  0.68360156  0.09454701  0.51438101    -0.01400
C2604       C  0.64981171  0.08031215  0.50718334     0.03600
C2605       C  0.63792402  0.02020229  0.92013347     0.38200
C2606       C  0.69790135  0.11875017  0.54656585     0.38200
C2607       C  0.63174853  0.09270509  0.52975970     0.36600
C2608       C  0.70519238  0.04657171  0.93765732     0.36600
N2609       N  0.61876457  0.10408085  0.54784645    -0.38200
N2610       N  0.72131039  0.03908173  0.91841596    -0.38200
N2611       N  0.70767069  0.13736036  0.57308950    -0.37600
N2612       N  0.62736217  0.00302704  0.89278229    -0.37600
C2613       C  0.82864774  0.16551390  0.90310245    -0.04300
C2614       C  0.84523971  0.15578975  0.87484654    -0.01400
C2615       C  0.83439568  0.14551227  0.83804593     0.03600
C2616       C  0.82495436  0.16294309  0.82133200    -0.01700
C2617       C  0.81333199  0.17914376  0.84823695    -0.01400
C2618       C  0.81298346  0.17831395  0.88863087     0.03600
C2619       C  0.88104611  0.17100994  0.87753250     0.38200
C2620       C  0.79934273  0.19441893  0.83490630     0.38200
C2621       C  0.79742328  0.19166473  0.91470598     0.36600
C2622       C  0.81477210  0.10861067  0.82992003     0.36600
N2623       N  0.78460963  0.20219114  0.93515586    -0.38200
N2624       N  0.79855314  0.07888128  0.82425389    -0.38200
N2625       N  0.78793480  0.20654250  0.82449929    -0.37600
N2626       N  0.90995318  0.18384546  0.87958709    -0.37600
C2627       C  0.82302121  0.15910315  0.65245378    -0.04300
C2628       C  0.80046772  0.16230246  0.63592480    -0.01400
C2629       C  0.80369472  0.16560040  0.59575337     0.03600
C2630       C  0.82760114  0.16317071  0.56996455    -0.04300
C2631       C  0.85533634  0.16978874  0.58726049    -0.01400
C2632       C  0.85337453  0.16846803  0.62755694     0.03600
C2633       C  0.77770319  0.16825617  0.66021794     0.38200
C2634       C  0.88834401  0.18367190  0.56457806     0.38200
C2635       C  0.88523717  0.18304519  0.64343098     0.36600
C2636       C  0.78903625  0.18026688  0.58237736     0.36600
N2637       N  0.91124888  0.19569277  0.65543722    -0.38200
N2638       N  0.77921007  0.19387951  0.57180077    -0.38200
N2639       N  0.91478263  0.19515898  0.54659896    -0.37600
N2640       N  0.75952188  0.17337931  0.67900724    -0.37600
C2641       C  0.82566876  0.65887935  0.02454523     0.31100
C2642       C  0.83075460  0.66531194  0.44627281     0.31100
C2643       C  0.83802848  0.63958473  0.99882324    -0.05100
C2644       C  0.79117414  0.64228062  0.00797000    -0.05900
C2645       C  0.84943214  0.69494822  0.00772511    -0.05800
C2646       C  0.84080285  0.64361585  0.45958774    -0.05100
C2647       C  0.79497880  0.64846153  0.46930211    -0.05900
C2648       C  0.85329526  0.69983854  0.46917516    -0.05800
C2649       C  0.84997504  0.62261405  0.44306830    -0.31200
N2650       N  0.85594976  0.61082737  0.47049204     0.15300
C2651       C  0.84740873  0.61925464  0.00478019    -0.31200
H2652       H  0.84954079  0.61342807  0.03180513     0.17300
C2653       C  0.76172580  0.62701329  0.45945097    -0.30200
N2654       N  0.73802067  0.60419193  0.98931862     0.14000
C2655       C  0.75699992  0.61574224  0.01921205    -0.30200
C2656       C  0.87166186  0.73430118  0.46205113    -0.30500
N2657       N  0.87872252  0.74996793  0.99447671     0.14500
H2658       H  0.87563383  0.74468389  0.43512592     0.17200
C2659       C  0.86658950  0.72832566  0.02302327    -0.30500
H2660       H  0.86783020  0.73605625  0.05290357     0.17200
H2661       H  0.74695628  0.60477742  0.04690820     0.17200
H2662       H  0.85258709  0.61607151  0.41336274     0.17200
H2663       H  0.75433324  0.62282957  0.43115554     0.17200
C2664       C  0.81928258  0.65444432  0.19688202     0.31100
C2665       C  0.82399586  0.66018720  0.27565436     0.31100
C2666       C  0.83596004  0.63952663  0.21064702    -0.05100
C2667       C  0.83960925  0.69095690  0.21599723    -0.05900
C2668       C  0.78448175  0.63498337  0.22327813    -0.05800
C2669       C  0.83958077  0.64359056  0.24978252    -0.05100
C2670       C  0.84251723  0.69443318  0.25507759    -0.05900
C2671       C  0.78707110  0.63838291  0.26269428    -0.05800
C2672       C  0.85767580  0.63123656  0.25438846    -0.31200
N2673       N  0.86193574  0.61710956  0.22092410     0.15300
C2674       C  0.84868180  0.62165650  0.19406485    -0.31200
H2675       H  0.84860484  0.61278529  0.16462999     0.17300
C2676       C  0.86388081  0.72990459  0.26384953    -0.30200
N2677       N  0.87337967  0.74716151  0.23157613     0.14000
C2678       C  0.85850116  0.72354817  0.20257777    -0.30200
C2679       C  0.75368110  0.62011912  0.28074503    -0.30500
N2680       N  0.73099855  0.60525960  0.25405371     0.14500
H2681       H  0.74640784  0.61851778  0.31107681     0.17200
C2682       C  0.74932279  0.61332228  0.21915519    -0.30500
H2683       H  0.73767173  0.60471460  0.19274632     0.17200
H2684       H  0.86153335  0.72979015  0.17354053     0.17200
H2685       H  0.86794144  0.63275391  0.27970548     0.17200
H2686       H  0.87222817  0.74223465  0.29141080     0.17200
O2687       O  0.53443699  0.94701024  0.37785739    -0.74200
O2688       O  0.53225436  0.94755325  0.44176692    -0.53100
C2689       C  0.53929936  0.93934657  0.40793342     0.79500
O2690       O  0.56281800  0.61034340  0.39241881    -0.58800
O2691       O  0.51516072  0.58665762  0.36201829    -0.51900
C2692       C  0.54554859  0.61273018  0.37131363     0.71500
O2693       O  0.59991705  0.56493770  0.45085078    -0.73400
O2694       O  0.57109725  0.51556226  0.48363946    -0.54000
C2695       C  0.59873377  0.54482420  0.47176981     0.77500
O2696       O  0.50094160  0.99489020  0.31388605    -0.58500
O2697       O  0.95734764  0.49642429  0.32609316    -0.51700
C2698       C  0.97104222  0.48247592  0.30870965     0.74100
Zr2699     Zr  0.50979163  0.97498639  0.36393102     2.54700
O2700       O  0.55477245  0.48533077  0.31920565    -0.79100
O2701       O  0.97085705  0.91819630  0.33128139    -0.92500
Zr2702     Zr  0.55965128  0.56615352  0.42160469     2.64700
O2703       O  0.60671641  0.58523766  0.37076582    -0.97500
O2704       O  0.59557120  0.61946919  0.45959929    -0.79500
O2705       O  0.54500407  0.50936927  0.41559366    -0.82900
O2706       O  0.52536232  0.53287157  0.37169314    -2.17600
O2707       O  0.88857983  0.94247757  0.39567522    -0.66300
O2708       O  0.91541398  0.99409469  0.36863361    -0.50900
C2709       C  0.88896928  0.96260329  0.37541523     0.72500
O2710       O  0.96887054  0.49289751  0.02971361    -0.59200
O2711       O  0.50690740  0.98505259  0.03567693    -0.51200
C2712       C  0.99448422  0.00098223  0.04475029     0.74300
O2713       O  0.94668407  0.55749173  0.47542418    -0.70600
O2714       O  0.94963538  0.55850932  0.41126972    -0.49300
C2715       C  0.94007243  0.56362019  0.44554627     0.75700
O2716       O  0.91908467  0.89900759  0.46688648    -0.65900
O2717       O  0.96936919  0.92059705  0.48996682    -0.53100
C2718       C  0.93763322  0.89554158  0.48431123     0.74000
Zr2719     Zr  0.92525933  0.94373946  0.43528188     2.77500
O2720       O  0.88004600  0.93321718  0.48525833    -0.96700
O2721       O  0.88695590  0.88613210  0.40607825    -0.77500
Zr2722     Zr  0.98002157  0.53886337  0.48999109     2.70100
O2723       O  0.94739093  0.04111778  0.04834698    -0.78700
O2724       O  0.52090288  0.59252977  0.01910937    -0.97800
Zr2725     Zr  0.51320020  0.98210642  0.46787874     2.21500
Zr2726     Zr  0.97491712  0.52898604  0.38508778     2.11100
O2727       O  0.94099212  0.00078711  0.44158807    -2.46500
O2728       O  0.96069863  0.97745890  0.48409295    -0.78500
O2729       O  0.95941240  0.97150802  0.37982720    -0.70700
O2730       O  0.52764483  0.53896209  0.47865694    -2.31700
O2731       O  0.97525843  0.94519985  0.41876373    -2.27900
O2732       O  0.50942113  0.56420074  0.43681043    -0.72500
H2733       H  0.53925077  0.54644764  0.34963490     0.79500
H2734       H  0.54350913  0.55140788  0.99682924     0.80600
H2735       H  0.91962738  0.99827335  0.44588078     0.82800
H2736       H  0.96926265  0.92221150  0.41621389     0.80400
H2737       H  0.61922049  0.63157950  0.44606897     0.43500
H2738       H  0.54008376  0.60381750  0.99848673     0.42400
H2739       H  0.95936190  0.06640289  0.05210548     0.42100
H2740       H  0.89069989  0.95548357  0.50026890     0.40000
H2741       H  0.90278751  0.88241392  0.38946631     0.43200
H2742       H  0.96360418  0.90084211  0.34961710     0.38000
H2743       H  0.57635158  0.50565341  0.32944928     0.44100
H2744       H  0.62800135  0.59792047  0.38383820     0.40500
H2745       H  0.86255010  0.93112821  0.47210471     0.45400
H2746       H  0.48548753  0.91617192  0.31281373     0.44100
H2747       H  0.60342812  0.56373868  0.36005111     0.44300
H2748       H  0.00878059  0.60137031  0.02568349     0.44600
O2749       O  0.56461713  0.97933547  0.13085110    -0.74200
O2750       O  0.54626637  0.96068151  0.19080452    -0.53100
C2751       C  0.56305391  0.96363438  0.15827282     0.79500
O2752       O  0.55682375  0.62152987  0.17805644    -0.58800
O2753       O  0.51575353  0.59937350  0.13724072    -0.51900
C2754       C  0.54222583  0.62471770  0.15381868     0.71500
O2755       O  0.58826035  0.56803826  0.23313858    -0.73400
O2756       O  0.56175320  0.51334101  0.25086348    -0.54000
C2757       C  0.58825167  0.54567914  0.24842839     0.77500
O2758       O  0.54599524  0.04575707  0.07316780    -0.58500
O2759       O  0.00560888  0.55163685  0.07508765    -0.51700
C2760       C  0.01791962  0.53555235  0.06133098     0.74100
Zr2761     Zr  0.54328511  0.01119603  0.11842313     2.54700
O2762       O  0.60431356  0.55736664  0.11951349    -0.79100
O2763       O  0.05521998  0.98806083  0.05731846    -0.92500
Zr2764     Zr  0.55017942  0.57382199  0.20519741     2.64700
O2765       O  0.60994252  0.62068182  0.18311760    -0.97500
O2766       O  0.55452829  0.60764278  0.26374574    -0.79500
O2767       O  0.55403331  0.52789551  0.18202774    -0.82900
O2768       O  0.53777971  0.55636479  0.14208909    -2.17600
O2769       O  0.90230461  0.94511094  0.11739744    -0.66300
O2770       O  0.92619379  0.00048710  0.10561490    -0.50900
C2771       C  0.90128819  0.96761688  0.10428238     0.72500
O2772       O  0.93162379  0.45242790  0.26370995    -0.59200
O2773       O  0.46808345  0.94302611  0.26760252    -0.51200
C2774       C  0.95389463  0.95629378  0.28155888     0.74300
O2775       O  0.92359616  0.53168935  0.22398786    -0.70600
O2776       O  0.94441946  0.55271416  0.16494195    -0.49300
C2777       C  0.92631277  0.54840800  0.19682137     0.75700
O2778       O  0.93129287  0.89429652  0.17751721    -0.65900
O2779       O  0.97536498  0.91441438  0.21306609    -0.53100
C2780       C  0.94697600  0.88992381  0.19870573     0.74000
Zr2781     Zr  0.93985547  0.94223570  0.15009439     2.77500
O2782       O  0.88097882  0.89501463  0.17392032    -0.96700
O2783       O  0.93793437  0.91131749  0.08990461    -0.77500
Zr2784     Zr  0.95085031  0.50603536  0.23872895     2.70100
O2785       O  0.89795348  0.98451506  0.28201138    -0.78700
O2786       O  0.47495098  0.55217753  0.29212957    -0.97800
Zr2787     Zr  0.50987049  0.97759515  0.21617126     2.21500
Zr2788     Zr  0.98044622  0.53587573  0.13880970     2.11100
O2789       O  0.93571603  0.98793273  0.17508101    -2.46500
O2790       O  0.95431784  0.96270438  0.21144852    -0.78500
O2791       O  0.98437667  0.99044897  0.11601161    -0.70700
O2792       O  0.50855486  0.52588068  0.24352763    -2.31700
O2793       O  0.99739693  0.96001798  0.15053904    -2.27900
O2794       O  0.49327281  0.55677109  0.20364129    -0.72500
H2795       H  0.55461429  0.57720308  0.12827921     0.79500
H2796       H  0.51611454  0.53371579  0.26849575     0.80600
H2797       H  0.91271524  0.98127495  0.17478371     0.82800
H2798       H  0.99761596  0.94055844  0.14176679     0.80400
H2799       H  0.55480014  0.59565899  0.28373125     0.43500
H2800       H  0.48550384  0.57422638  0.28015223     0.42400
H2801       H  0.87890297  0.96476779  0.26776464     0.42100
H2802       H  0.87245334  0.90662971  0.19092949     0.40000
H2803       H  0.96251567  0.92176630  0.08084534     0.43200
H2804       H  0.04202503  0.96288111  0.06043343     0.38000
H2805       H  0.61208842  0.55088393  0.13817770     0.44100
H2806       H  0.61997197  0.63585373  0.20596690     0.40500
H2807       H  0.86731771  0.88586132  0.15188665     0.45400
H2808       H  0.57860851  0.99635778  0.05759522     0.44100
H2809       H  0.62197722  0.60991819  0.17687503     0.44300
H2810       H  0.95193344  0.54429400  0.30701344     0.44600
C2811       C  0.66139642  0.84878669  0.32368194     0.31100
C2812       C  0.66023450  0.84582008  0.40243601     0.31100
C2813       C  0.64329238  0.86211875  0.35107394    -0.05100
C2814       C  0.64141230  0.81199441  0.33967994    -0.05900
C2815       C  0.69617661  0.86867700  0.33991365    -0.05800
C2816       C  0.64240811  0.86013536  0.39033959    -0.05100
C2817       C  0.64091542  0.81072179  0.37920327    -0.05900
C2818       C  0.69562240  0.86717992  0.37886018    -0.05800
C2819       C  0.62119005  0.86831719  0.40880229    -0.31200
N2820       N  0.61066691  0.87714621  0.38288217     0.15300
C2821       C  0.62346225  0.87272341  0.34769071    -0.31200
H2822       H  0.61859266  0.87684058  0.32135060     0.17300
C2823       C  0.61926680  0.77617056  0.38758239    -0.30200
N2824       N  0.60786387  0.75646838  0.35509824     0.14000
C2825       C  0.62035127  0.77778924  0.32594903    -0.30200
C2826       C  0.72943775  0.88659244  0.38651590    -0.30500
N2827       N  0.75009470  0.89974813  0.35366995     0.14500
H2828       H  0.73849470  0.89011633  0.41366795     0.17200
C2829       C  0.73030559  0.88896575  0.32495927    -0.30500
H2830       H  0.74007401  0.89462620  0.29542281     0.17200
H2831       H  0.61500389  0.76891569  0.29681035     0.17200
H2832       H  0.61341009  0.86718360  0.43901121     0.17200
H2833       H  0.61249524  0.76573334  0.41524356     0.17200
C2834       C  0.66722221  0.85351350  0.07311592     0.31100
C2835       C  0.67155577  0.85853228  0.15193688     0.31100
C2836       C  0.65479985  0.87308044  0.09856410    -0.05100
C2837       C  0.64506537  0.81876880  0.09415963    -0.05900
C2838       C  0.70333183  0.87186627  0.08619372    -0.05800
C2839       C  0.65675326  0.87540443  0.13805862    -0.05100
C2840       C  0.64772323  0.82180804  0.13332384    -0.05900
C2841       C  0.70557728  0.87445759  0.12540295    -0.05800
C2842       C  0.64061769  0.88984946  0.15488208    -0.31200
N2843       N  0.63039707  0.89754402  0.12753732     0.15300
C2844       C  0.63811316  0.88675656  0.09327311    -0.31200
H2845       H  0.63105394  0.88786189  0.06669779     0.17300
C2846       C  0.62539726  0.78906364  0.14684830    -0.30200
N2847       N  0.60906594  0.76559562  0.11807336     0.14000
C2848       C  0.62028138  0.78353951  0.08585890    -0.30200
C2849       C  0.74027764  0.89366783  0.13003675    -0.30500
N2850       N  0.75876710  0.90252113  0.09527559     0.14500
H2851       H  0.75135954  0.90076489  0.15666641     0.17200
C2852       C  0.73661578  0.88933844  0.06837309    -0.30500
H2853       H  0.74425828  0.89243884  0.03816789     0.17200
H2854       H  0.61090129  0.77202224  0.05846678     0.17200
H2855       H  0.63543953  0.89356558  0.18496641     0.17200
H2856       H  0.62161928  0.78255808  0.17589890     0.17200
C2857       C  0.67418229  0.85967133  0.19638420    -0.04300
C2858       C  0.67746902  0.83648409  0.21177701    -0.01400
C2859       C  0.67345555  0.83308298  0.25201048     0.03600
C2860       C  0.66627352  0.85299491  0.27880915    -0.04300
C2861       C  0.67451925  0.88308577  0.26316080    -0.01400
C2862       C  0.67868610  0.88643459  0.22277846     0.03600
C2863       C  0.68980648  0.81950711  0.18647741     0.38200
C2864       C  0.68462607  0.91337723  0.28780866     0.38200
C2865       C  0.69498673  0.92030686  0.20870063     0.36600
C2866       C  0.68227947  0.81298914  0.26544623     0.36600
N2867       N  0.70866554  0.94764160  0.19781704    -0.38200
N2868       N  0.69000718  0.79741821  0.27590501    -0.38200
N2869       N  0.69334126  0.93797438  0.30701302    -0.37600
N2870       N  0.70014896  0.80635535  0.16641935    -0.37600
C2871       C  0.66324310  0.84775768  0.44687054    -0.04300
C2872       C  0.66533605  0.82446375  0.46428690    -0.01400
C2873       C  0.66649811  0.82622880  0.50462043     0.03600
C2874       C  0.66721513  0.85217860  0.02811670    -0.04300
C2875       C  0.67708268  0.88101522  0.50943204    -0.01400
C2876       C  0.67414812  0.87861119  0.46962362     0.03600
C2877       C  0.67420108  0.80396945  0.44063415     0.38200
C2878       C  0.69629601  0.91502778  0.02723170     0.38200
C2879       C  0.68870879  0.91010927  0.45086727     0.36600
C2880       C  0.67529415  0.80675918  0.51969079     0.36600
N2881       N  0.70133655  0.93526971  0.43535427    -0.38200
N2882       N  0.68388867  0.79258733  0.53170006    -0.38200
N2883       N  0.71388207  0.94261807  0.04102380    -0.37600
N2884       N  0.68236316  0.78809969  0.42258874    -0.37600
C2885       C  0.55741594  0.66022990  0.14327129    -0.04300
C2886       C  0.57618291  0.67207455  0.10737715    -0.01400
C2887       C  0.59131048  0.70606075  0.09724136     0.03600
C2888       C  0.58682290  0.72827387  0.12265557    -0.04300
C2889       C  0.56415002  0.71436609  0.15650608    -0.01400
C2890       C  0.55122684  0.68141490  0.16774914     0.03600
C2891       C  0.58087806  0.64952158  0.08122509     0.38200
C2892       C  0.55295181  0.73346417  0.17906203     0.38200
C2893       C  0.53108838  0.66902170  0.20430467     0.36600
C2894       C  0.61134447  0.71746597  0.06064504     0.36600
N2895       N  0.51500038  0.65894419  0.23340105    -0.38200
N2896       N  0.62640262  0.72497730  0.03073346    -0.38200
N2897       N  0.54364635  0.74846065  0.19690361    -0.37600
N2898       N  0.58460388  0.63158264  0.06025362    -0.37600
C2899       C  0.86729603  0.95375463  0.09053068    -0.04300
C2900       C  0.85445328  0.97354670  0.09526186    -0.01400
C2901       C  0.81862123  0.95674387  0.09440094     0.03600
C2902       C  0.79565263  0.92057680  0.08831621    -0.04300
C2903       C  0.80877994  0.90167468  0.07801881    -0.01400
C2904       C  0.84430578  0.91794612  0.07916910     0.03600
C2905       C  0.87711746  0.01078542  0.10240665     0.38200
C2906       C  0.78512737  0.86499565  0.06774950     0.38200
C2907       C  0.85654145  0.89705615  0.07053487     0.36600
C2908       C  0.80494237  0.97636610  0.10001521     0.36600
N2909       N  0.86648722  0.88052902  0.06473902    -0.38200
N2910       N  0.79398866  0.99199209  0.10404707    -0.38200
N2911       N  0.76619400  0.83579028  0.05927094    -0.37600
N2912       N  0.89453849  0.04061907  0.10755135    -0.37600
C2913       C  0.58122796  0.94720438  0.15155578    -0.04300
C2914       C  0.56750307  0.91607558  0.16925267    -0.01400
C2915       C  0.58241484  0.89863767  0.15897637     0.03600
C2916       C  0.61327767  0.91368817  0.13439556    -0.04300
C2917       C  0.62867510  0.94595332  0.11917157    -0.01400
C2918       C  0.61249176  0.96232478  0.12698773     0.03600
C2919       C  0.53947769  0.90253493  0.19977943     0.38200
C2920       C  0.66232631  0.96360440  0.09725303     0.38200
C2921       C  0.62973741  0.99607850  0.11176654     0.36600
C2922       C  0.56569991  0.86469555  0.17327140     0.36600
N2923       N  0.64264456  0.52157973  0.09448155    -0.38200
N2924       N  0.55235807  0.83753495  0.18442066    -0.38200
N2925       N  0.68941884  0.97908876  0.08014464    -0.37600
N2926       N  0.01623223  0.89045957  0.22200711    -0.37600
C2927       C  0.56185986  0.64870686  0.35905895    -0.04300
C2928       C  0.59861346  0.67465660  0.35694094    -0.01400
C2929       C  0.61351998  0.70965097  0.35223685     0.03600
C2930       C  0.59245176  0.71996236  0.35174835    -0.04300
C2931       C  0.55640283  0.69460167  0.35149991    -0.01400
C2932       C  0.54114549  0.65899136  0.35386793     0.03600
C2933       C  0.62183992  0.66639633  0.36070137     0.38200
C2934       C  0.53500340  0.70553008  0.35029990     0.38200
C2935       C  0.50395902  0.63360086  0.35268516     0.36600
C2936       C  0.65093709  0.73561283  0.34838716     0.36600
N2937       N  0.97564105  0.61246443  0.34772828    -0.38200
N2938       N  0.68081619  0.75609571  0.34485602    -0.38200
N2939       N  0.51786574  0.71424749  0.34947246    -0.37600
N2940       N  0.64118486  0.66097842  0.36410990    -0.37600
C2941       C  0.78654839  0.91689604  0.34962876    -0.04300
C2942       C  0.79847552  0.89684049  0.34473234    -0.01400
C2943       C  0.83296557  0.91225443  0.35000574     0.03600
C2944       C  0.85574482  0.94819180  0.36040724    -0.04300
C2945       C  0.84434353  0.96888020  0.36082705    -0.01400
C2946       C  0.80954973  0.95295216  0.35578770     0.03600
C2947       C  0.77416073  0.85973333  0.33687990     0.38200
C2948       C  0.86833435  0.50733244  0.36413317     0.38200
C2949       C  0.79649132  0.97304399  0.35915453     0.36600
C2950       C  0.84395157  0.89032591  0.34607605     0.36600
N2951       N  0.78460536  0.48790629  0.36633849    -0.38200
N2952       N  0.85132433  0.87167068  0.34307015    -0.38200
N2953       N  0.88709537  0.53735568  0.36558689    -0.37600
N2954       N  0.75457552  0.83014750  0.33077885    -0.37600
C2955       C  0.55518652  0.92078152  0.40342279    -0.04300
C2956       C  0.57966995  0.92957836  0.42797061    -0.01400
C2957       C  0.59805621  0.91554690  0.42107094     0.03600
C2958       C  0.59059476  0.89039272  0.39118987    -0.04300
C2959       C  0.56365765  0.87899501  0.36903698    -0.01400
C2960       C  0.54673638  0.89468938  0.37438060     0.03600
C2961       C  0.58676601  0.95343575  0.46062749     0.38200
C2962       C  0.55215011  0.84997340  0.34175354     0.38200
C2963       C  0.51950240  0.88254450  0.35086824     0.36600
C2964       C  0.62520640  0.92827102  0.44490509     0.36600
N2965       N  0.00176084  0.87543403  0.32789527    -0.38200
N2966       N  0.64600718  0.93934271  0.46550022    -0.38200
N2967       N  0.54282413  0.82676552  0.32002136    -0.37600
N2968       N  0.59275323  0.97183311  0.48727708    -0.37600
C2969       C  0.90873267  0.56535960  0.20273642    -0.04300
C2970       C  0.87517081  0.54910690  0.22264853    -0.01400
C2971       C  0.85933931  0.56588864  0.22761397     0.03600
C2972       C  0.87770493  0.59977695  0.21527971    -0.04300
C2973       C  0.91149254  0.61659436  0.19728340    -0.01400
C2974       C  0.92585683  0.59868596  0.18839804     0.03600
C2975       C  0.85598058  0.51447673  0.23620881     0.38200
C2976       C  0.93259732  0.65315804  0.18993079     0.38200
C2977       C  0.95723512  0.61449566  0.16241068     0.36600
C2978       C  0.82385156  0.54817149  0.24469256     0.36600
N2979       N  0.47798715  0.62787271  0.14164757    -0.38200
N2980       N  0.79533187  0.53374307  0.25787095    -0.38200
N2981       N  0.95102458  0.68256853  0.18478229    -0.37600
N2982       N  0.83323723  0.97816734  0.22693511    -0.37600
C2983       C  0.89456223  0.78415796  0.22731914    -0.04300
C2984       C  0.88277109  0.80326927  0.24507858    -0.01400
C2985       C  0.90042145  0.83804620  0.23603212     0.03600
C2986       C  0.92967897  0.85385494  0.20877563    -0.04300
C2987       C  0.94050740  0.83437217  0.18964354    -0.01400
C2988       C  0.92401702  0.80022004  0.20008868     0.03600
C2989       C  0.85097136  0.78647062  0.27040271     0.38200
C2990       C  0.96621793  0.84817944  0.15683497     0.38200
C2991       C  0.93738770  0.78158494  0.18256933     0.36600
C2992       C  0.88681587  0.85682279  0.25219244     0.36600
N2993       N  0.94894246  0.76752002  0.16844845    -0.38200
N2994       N  0.87597064  0.87203595  0.26385202    -0.38200
N2995       N  0.98614394  0.85884536  0.13015765    -0.37600
N2996       N  0.82544928  0.77361921  0.29044914    -0.37600
C2997       C  0.69422547  0.58892981  0.26105799    -0.04300
C2998       C  0.68272602  0.60947161  0.27048270    -0.01400
C2999       C  0.64738063  0.59474854  0.27011130     0.03600
C3000       C  0.62264440  0.55878984  0.26067758    -0.04300
C3001       C  0.63393080  0.53767264  0.25588052    -0.01400
C3002       C  0.66961995  0.55286093  0.25515518     0.03600
C3003       C  0.70778676  0.64647872  0.27785982     0.38200
C3004       C  0.60950248  0.50045664  0.25035961     0.38200
C3005       C  0.68137825  0.53155445  0.24692991     0.36600
C3006       C  0.63730048  0.61753601  0.27717842     0.36600
N3007       N  0.69047645  0.51428872  0.24022228    -0.38200
N3008       N  0.62966779  0.63603182  0.28167955    -0.38200
N3009       N  0.59031092  0.47057361  0.24689403    -0.37600
N3010       N  0.72720503  0.67612063  0.28366013    -0.37600
C3011       C  0.91835181  0.57574092  0.45135715    -0.04300
C3012       C  0.88201037  0.55184744  0.46061250    -0.01400
C3013       C  0.85911214  0.56039828  0.96818853     0.03600
C3014       C  0.87668669  0.59864547  0.46400922    -0.04300
C3015       C  0.91297981  0.62259015  0.45559884    -0.01400
C3016       C  0.93381327  0.61123568  0.44940763     0.03600
C3017       C  0.86198626  0.51122468  0.96473820     0.38200
C3018       C  0.92887168  0.65919783  0.45490609     0.38200
C3019       C  0.97125600  0.63631725  0.44302386     0.36600
C3020       C  0.82177426  0.53691230  0.97693050     0.36600
N3021       N  0.00113824  0.65658294  0.43846788    -0.38200
N3022       N  0.79195059  0.51823027  0.98405282    -0.38200
N3023       N  0.94150269  0.68843303  0.45463138    -0.37600
N3024       N  0.84780570  0.98226672  0.96518284    -0.37600
C3025       C  0.89416729  0.78893828  0.50017814    -0.04300
C3026       C  0.92733371  0.81181716  0.00378339    -0.01400
C3027       C  0.94328943  0.85046204  0.50250706     0.03600
C3028       C  0.92184977  0.85945853  0.49559591    -0.04300
C3029       C  0.88541778  0.83227008  0.49522061    -0.01400
C3030       C  0.87187768  0.79758276  0.49907424     0.03600
C3031       C  0.94897506  0.80189047  0.00846781     0.38200
C3032       C  0.86121165  0.83876613  0.48957207     0.38200
C3033       C  0.83471238  0.77030969  0.50205318     0.36600
C3034       C  0.97770014  0.87315321  0.00890483     0.36600
N3035       N  0.80502156  0.74875953  0.50532280    -0.38200
N3036       N  0.50804449  0.89552805  0.01617814    -0.38200
N3037       N  0.84137525  0.84311472  0.48471205    -0.37600
N3038       N  0.96608084  0.79383069  0.01248459    -0.37600
C3039       C  0.63250417  0.55618915  0.48105321    -0.04300
C3040       C  0.65219482  0.54872139  0.45481668    -0.01400
C3041       C  0.68649069  0.56348647  0.46062028     0.03600
C3042       C  0.70212970  0.58765926  0.49130316    -0.04300
C3043       C  0.68012787  0.58701222  0.01729346    -0.01400
C3044       C  0.64642785  0.57358399  0.01056827     0.03600
C3045       C  0.63812402  0.52805201  0.42026045     0.38200
C3046       C  0.69346807  0.60748452  0.05200860     0.38200
C3047       C  0.62810345  0.58466696  0.03538065     0.36600
C3048       C  0.70590240  0.55414309  0.43467877     0.36600
N3049       N  0.61474579  0.59485843  0.05528944    -0.38200
N3050       N  0.72140833  0.54674897  0.41388801    -0.38200
N3051       N  0.70284018  0.62279263  0.08056155    -0.37600
N3052       N  0.62702170  0.51184471  0.39256745    -0.37600
C3053       C  0.83142963  0.66793828  0.40204378    -0.04300
C3054       C  0.84644667  0.65632089  0.37391050    -0.01400
C3055       C  0.83494443  0.64548727  0.33745799     0.03600
C3056       C  0.82552474  0.66275767  0.32040222    -0.01700
C3057       C  0.81525168  0.68029839  0.34689020    -0.01400
C3058       C  0.81627326  0.68111110  0.38723074     0.03600
C3059       C  0.88133938  0.66829382  0.37610132     0.38200
C3060       C  0.80073449  0.69491331  0.33333651     0.38200
C3061       C  0.80233203  0.69630093  0.41282522     0.36600
C3062       C  0.81610771  0.60865737  0.32949543     0.36600
N3063       N  0.79067777  0.70829565  0.43263591    -0.38200
N3064       N  0.80046378  0.57892107  0.32450159    -0.38200
N3065       N  0.78869252  0.70633365  0.32283154    -0.37600
N3066       N  0.90948744  0.67805784  0.37720250    -0.37600
C3067       C  0.82055303  0.65576388  0.15193371    -0.04300
C3068       C  0.79814733  0.65927592  0.13559840    -0.01400
C3069       C  0.80099891  0.66218390  0.09536445     0.03600
C3070       C  0.82469767  0.65942144  0.06941750    -0.04300
C3071       C  0.85227097  0.66553742  0.08649801    -0.01400
C3072       C  0.85062238  0.66468350  0.12677642     0.03600
C3073       C  0.77599205  0.66590000  0.16016807     0.38200
C3074       C  0.88489441  0.67816907  0.06351918     0.38200
C3075       C  0.88270771  0.67960718  0.14226093     0.36600
C3076       C  0.78522364  0.67569728  0.08189986     0.36600
N3077       N  0.90890808  0.69249926  0.15390822    -0.38200
N3078       N  0.77390873  0.68786763  0.07130436    -0.38200
N3079       N  0.91109058  0.68857349  0.04547701    -0.37600
N3080       N  0.75844356  0.67168433  0.17928877    -0.37600
C3081       C  0.82723037  0.66185711  0.52513028     0.31100
C3082       C  0.82893696  0.66179470  0.94563818     0.31100
C3083       C  0.83918778  0.64222235  0.49921647    -0.05100
C3084       C  0.79292460  0.64593426  0.50855345    -0.05900
C3085       C  0.85143885  0.69807779  0.50853955    -0.05800
C3086       C  0.83974082  0.64082442  0.95910813    -0.05100
C3087       C  0.79312301  0.64450718  0.96862740    -0.05900
C3088       C  0.85117570  0.69652988  0.96837038    -0.05800
C3089       C  0.84985846  0.62054387  0.94287458    -0.31200
N3090       N  0.85555548  0.60884176  0.97068613     0.15300
C3091       C  0.84829281  0.62148506  0.50476225    -0.31200
H3092       H  0.85063016  0.61557670  0.53160277     0.17300
C3093       C  0.76008545  0.62115535  0.95833601    -0.30200
N3094       N  0.73947658  0.61062244  0.49060379     0.14000
C3095       C  0.75838227  0.62103312  0.52030263    -0.30200
C3096       C  0.86947011  0.73100085  0.96114408    -0.30500
N3097       N  0.88092944  0.75320833  0.49539374     0.14500
H3098       H  0.87353274  0.74134607  0.93415917     0.17200
C3099       C  0.86862702  0.73147428  0.52392982    -0.30500
H3100       H  0.86968445  0.73913175  0.55383037     0.17200
H3101       H  0.74796548  0.61023268  0.54807905     0.17200
H3102       H  0.85325907  0.61443158  0.91320402     0.17200
H3103       H  0.75276670  0.61631319  0.92987532     0.17200
C3104       C  0.81786083  0.65424552  0.69706263     0.31100
C3105       C  0.82162166  0.65857431  0.77580348     0.31100
C3106       C  0.83218052  0.63693193  0.71073729    -0.05100
C3107       C  0.83960689  0.69050779  0.71651401    -0.05900
C3108       C  0.78300455  0.63623618  0.72315277    -0.05800
C3109       C  0.83522901  0.64014704  0.74991257    -0.05100
C3110       C  0.84197978  0.69335689  0.75564178    -0.05900
C3111       C  0.78516605  0.63887293  0.76260126    -0.05800
C3112       C  0.85018198  0.62458609  0.75477792    -0.31200
N3113       N  0.85314458  0.60959089  0.72139039     0.15300
C3114       C  0.84240711  0.61685650  0.69421806    -0.31200
H3115       H  0.84278024  0.60872494  0.66455824     0.17300
C3116       C  0.86262798  0.72876841  0.76519290    -0.30200
N3117       N  0.87226818  0.74649503  0.73324364     0.14000
C3118       C  0.85816804  0.72325956  0.70377780    -0.30200
C3119       C  0.75181449  0.62094556  0.78035397    -0.30500
N3120       N  0.72957937  0.60713396  0.75341759     0.14500
H3121       H  0.74420987  0.61845159  0.81060544     0.17200
C3122       C  0.74802767  0.61543892  0.71864396    -0.30500
H3123       H  0.73658870  0.60720911  0.69212607     0.17200
H3124       H  0.86098803  0.72987535  0.67497694     0.17200
H3125       H  0.85971003  0.62492937  0.78011100     0.17200
H3126       H  0.86989208  0.74070479  0.79315186     0.17200
O3127       O  0.53407760  0.94571667  0.87929106    -0.74200
O3128       O  0.52926860  0.94390680  0.94323993    -0.53100
C3129       C  0.53733798  0.93661869  0.90945900     0.79500
O3130       O  0.56299143  0.61010046  0.89300608    -0.58800
O3131       O  0.51606483  0.58654738  0.86134728    -0.51900
C3132       C  0.54608907  0.61260395  0.87141773     0.71500
O3133       O  0.60023772  0.56232780  0.94777254    -0.73400
O3134       O  0.57055874  0.51327929  0.98139443    -0.54000
C3135       C  0.59859559  0.54186817  0.96866614     0.77500
O3136       O  0.50360614  0.99716456  0.81527877    -0.58500
O3137       O  0.95694547  0.49571421  0.82576988    -0.51700
C3138       C  0.97111900  0.48220189  0.80857190     0.74100
Zr3139     Zr  0.51017381  0.97432203  0.86449690     2.54700
O3140       O  0.55657337  0.48676707  0.82012062    -0.79100
O3141       O  0.97420547  0.91739528  0.82734605    -0.92500
Zr3142     Zr  0.55995015  0.56525747  0.92075955     2.64700
O3143       O  0.60511709  0.58361498  0.86777791    -0.97500
O3144       O  0.59834442  0.61813025  0.95818812    -0.79500
O3145       O  0.54469712  0.50826385  0.91498234    -0.82900
O3146       O  0.52545202  0.53215801  0.87091308    -2.17600
O3147       O  0.88630193  0.94016593  0.89785091    -0.66300
O3148       O  0.91370986  0.99120434  0.86923176    -0.50900
C3149       C  0.88710391  0.95997102  0.87655829     0.72500
O3150       O  0.97215351  0.49788969  0.52885033    -0.59200
O3151       O  0.51032403  0.98915330  0.53468580    -0.51200
C3152       C  0.99698517  0.00360310  0.54361823     0.74300
O3153       O  0.94262408  0.55157983  0.97791421    -0.70600
O3154       O  0.94662838  0.55446036  0.91395789    -0.49300
C3155       C  0.93652425  0.55856456  0.94840382     0.75700
O3156       O  0.91754740  0.89633724  0.96832516    -0.65900
O3157       O  0.96763296  0.91766942  0.99166001    -0.53100
C3158       C  0.93597232  0.89269325  0.98579014     0.74000
Zr3159     Zr  0.92292074  0.94111499  0.93743566     2.77500
O3160       O  0.87961178  0.93132014  0.98980812    -0.96700
O3161       O  0.88116752  0.88305048  0.91129889    -0.77500
Zr3162     Zr  0.97680733  0.53371678  0.99048244     2.70100
O3163       O  0.94670289  0.04100461  0.54574964    -0.78700
O3164       O  0.52073650  0.59312696  0.52040044    -0.97800
Zr3165     Zr  0.51090356  0.97903702  0.96873741     2.21500
Zr3166     Zr  0.97352549  0.52691117  0.88558322     2.11100
O3167       O  0.93854746  0.99812153  0.94332841    -2.46500
O3168       O  0.95863366  0.97508411  0.98573264    -0.78500
O3169       O  0.95742123  0.96877754  0.88183899    -0.70700
O3170       O  0.52753562  0.53796423  0.97787056    -2.31700
O3171       O  0.97275967  0.94233307  0.91997371    -2.27900
O3172       O  0.51015839  0.56413210  0.93634440    -0.72500
H3173       H  0.53894410  0.54527795  0.84849197     0.79500
H3174       H  0.54353667  0.55260075  0.49766029     0.80600
H3175       H  0.91705779  0.99535831  0.94750933     0.82800
H3176       H  0.96656483  0.91926023  0.91725995     0.80400
H3177       H  0.62074660  0.63117016  0.94199744     0.43500
H3178       H  0.53452035  0.60784778  0.49831948     0.42400
H3179       H  0.92206820  0.02323436  0.54112619     0.42100
H3180       H  0.88809842  0.95471013  0.00073898     0.40000
H3181       H  0.89551950  0.87649349  0.89670013     0.43200
H3182       H  0.96338360  0.89902149  0.84571781     0.38000
H3183       H  0.57725172  0.50085772  0.83437185     0.44100
H3184       H  0.62623002  0.59226982  0.87939434     0.40500
H3185       H  0.85892684  0.92303451  0.97752641     0.45400
H3186       H  0.48673618  0.91615624  0.81255048     0.44100
H3187       H  0.59871549  0.56183957  0.85373388     0.44300
H3188       H  0.01477264  0.60423221  0.53182170     0.44600
O3189       O  0.56327222  0.97888102  0.62608760    -0.74200
O3190       O  0.54799167  0.96304285  0.68705206    -0.53100
C3191       C  0.56294732  0.96427890  0.65379929     0.79500
O3192       O  0.55488404  0.62355099  0.68493605    -0.58800
O3193       O  0.51551318  0.60192054  0.64217911    -0.51900
C3194       C  0.54092455  0.62708292  0.66026304     0.71500
O3195       O  0.58643512  0.56831207  0.73572125    -0.73400
O3196       O  0.55995013  0.51409036  0.75498979    -0.54000
C3197       C  0.58654644  0.54626069  0.75149989     0.77500
O3198       O  0.54975373  0.04990536  0.57143223    -0.58500
O3199       O  0.00580967  0.55515258  0.57681729    -0.51700
C3200       C  0.01937545  0.54024896  0.56302961     0.74100
Zr3201     Zr  0.54463030  0.01390728  0.61654439     2.54700
O3202       O  0.60500059  0.55879382  0.62362045    -0.79100
O3203       O  0.05824941  0.99213744  0.55797592    -0.92500
Zr3204     Zr  0.54812331  0.57508816  0.71009771     2.64700
O3205       O  0.60723323  0.62697222  0.69520249    -0.97500
O3206       O  0.54736639  0.60290000  0.77180402    -0.79500
O3207       O  0.55303927  0.52993029  0.68627930    -0.82900
O3208       O  0.53798960  0.55890933  0.64603533    -2.17600
O3209       O  0.90249815  0.94736168  0.61701269    -0.66300
O3210       O  0.92646746  0.00306603  0.60679408    -0.50900
C3211       C  0.90164483  0.97021986  0.60457678     0.72500
O3212       O  0.93310905  0.45276099  0.76219200    -0.59200
O3213       O  0.47348386  0.94645513  0.76686512    -0.51200
C3214       C  0.95108009  0.95395689  0.78194704     0.74300
O3215       O  0.91982099  0.52920665  0.72469201    -0.70600
O3216       O  0.94231485  0.55269547  0.66681626    -0.49300
C3217       C  0.92274854  0.54642372  0.69796582     0.75700
O3218       O  0.92781848  0.89362381  0.67780812    -0.65900
O3219       O  0.97188621  0.91266758  0.71279159    -0.53100
C3220       C  0.94316279  0.88857047  0.69876686     0.74000
Zr3221     Zr  0.93892355  0.94272832  0.64949220     2.77500
O3222       O  0.87844513  0.89435225  0.66628207    -0.96700
O3223       O  0.94043720  0.91445952  0.58843849    -0.77500
Zr3224     Zr  0.94953560  0.50633032  0.73966525     2.70100
O3225       O  0.89346254  0.98149237  0.77738041    -0.78700
O3226       O  0.46534368  0.54952917  0.79755364    -0.97800
Zr3227     Zr  0.51127009  0.97931233  0.71315420     2.21500
Zr3228     Zr  0.98023226  0.53826097  0.64029803     2.11100
O3229       O  0.93529745  0.98856553  0.67564167    -2.46500
O3230       O  0.95216946  0.96160748  0.71158126    -0.78500
O3231       O  0.98394377  0.99112400  0.61560458    -0.70700
O3232       O  0.50580084  0.52637681  0.74670333    -2.31700
O3233       O  0.99603322  0.95970596  0.65062457    -2.27900
O3234       O  0.49167889  0.55785949  0.70622523    -0.72500
H3235       H  0.55494897  0.57989363  0.63249901     0.79500
H3236       H  0.51286932  0.53432203  0.77185802     0.80600
H3237       H  0.91253243  0.98245654  0.67530884     0.82800
H3238       H  0.99617585  0.94023259  0.64165345     0.80400
H3239       H  0.55540594  0.59529269  0.78873667     0.43500
H3240       H  0.47848186  0.57256291  0.78666156     0.42400
H3241       H  0.87648781  0.96055843  0.76236450     0.42100
H3242       H  0.86665452  0.90513918  0.67515410     0.40000
H3243       H  0.95524257  0.90750353  0.59078098     0.43200
H3244       H  0.04537063  0.96680244  0.55942713     0.38000
H3245       H  0.60728328  0.57987349  0.63400280     0.44100
H3246       H  0.61264311  0.64239271  0.71832505     0.40500
H3247       H  0.86933673  0.88220904  0.64179707     0.45400
H3248       H  0.58532148  0.00512237  0.55628847     0.44100
H3249       H  0.62251181  0.61994375  0.69369649     0.44300
H3250       H  0.94753605  0.54314520  0.80797986     0.44600
C3251       C  0.66035139  0.84825766  0.82335208     0.31100
C3252       C  0.65995220  0.84529218  0.90176990     0.31100
C3253       C  0.64230056  0.86141677  0.85115235    -0.05100
C3254       C  0.64055593  0.81143214  0.83914131    -0.05900
C3255       C  0.69534558  0.86804594  0.83908815    -0.05800
C3256       C  0.64183723  0.85937561  0.89023563    -0.05100
C3257       C  0.64053350  0.81016454  0.87855843    -0.05900
C3258       C  0.69512071  0.86657066  0.87791759    -0.05800
C3259       C  0.61905517  0.86528697  0.90915333    -0.31200
N3260       N  0.60743849  0.87337779  0.88380235     0.15300
C3261       C  0.62067319  0.87001882  0.84836823    -0.31200
H3262       H  0.61496473  0.87354743  0.82225697     0.17300
C3263       C  0.61951808  0.77563443  0.88679980    -0.30200
N3264       N  0.60774811  0.75594229  0.85435413     0.14000
C3265       C  0.61955385  0.77724249  0.82537074    -0.30200
C3266       C  0.72892191  0.88488029  0.88503230    -0.30500
N3267       N  0.74931870  0.89731149  0.85192167     0.14500
H3268       H  0.73810507  0.88805950  0.91198588     0.17200
C3269       C  0.72936140  0.88723469  0.82357541    -0.30500
H3270       H  0.73888102  0.89253024  0.79393441     0.17200
H3271       H  0.61387992  0.76838080  0.79630310     0.17200
H3272       H  0.61094014  0.86303375  0.93930284     0.17200
H3273       H  0.61356872  0.76524054  0.91430971     0.17200
C3274       C  0.66692029  0.85358796  0.57386518     0.31100
C3275       C  0.67152693  0.85999645  0.65253787     0.31100
C3276       C  0.65600990  0.87476115  0.59837641    -0.05100
C3277       C  0.64349362  0.81933843  0.59594756    -0.05900
C3278       C  0.70291207  0.87084158  0.58677434    -0.05800
C3279       C  0.65812665  0.87790357  0.63789180    -0.05100
C3280       C  0.64633079  0.82319414  0.63505509    -0.05900
C3281       C  0.70524045  0.87412031  0.62597598    -0.05800
C3282       C  0.64141858  0.89196780  0.65398989    -0.31200
N3283       N  0.63077902  0.89867421  0.62611231     0.15300
C3284       C  0.63864160  0.88745469  0.59231778    -0.31200
H3285       H  0.63098414  0.88733007  0.56554847     0.17300
C3286       C  0.62293200  0.79113463  0.64991996    -0.30200
N3287       N  0.60574842  0.76704065  0.62199648     0.14000
C3288       C  0.61742122  0.78418006  0.58898816    -0.30200
C3289       C  0.73997155  0.89356869  0.63069788    -0.30500
N3290       N  0.75848439  0.90176352  0.59593605     0.14500
H3291       H  0.75109195  0.90174550  0.65743598     0.17200
C3292       C  0.73625100  0.88801874  0.56897009    -0.30500
H3293       H  0.74391434  0.89110545  0.53876692     0.17200
H3294       H  0.60761856  0.77223571  0.56187123     0.17200
H3295       H  0.63580497  0.89571356  0.68394114     0.17200
H3296       H  0.61943415  0.78549207  0.67926109     0.17200
C3297       C  0.67414085  0.86098960  0.69672866    -0.04300
C3298       C  0.67712169  0.83740275  0.71161706    -0.01400
C3299       C  0.67269429  0.83335581  0.75164101     0.03600
C3300       C  0.66513893  0.85283464  0.77872370    -0.04300
C3301       C  0.67283873  0.88292526  0.76368287    -0.01400
C3302       C  0.67770296  0.88706489  0.72347558     0.03600
C3303       C  0.68817415  0.81949590  0.68581696     0.38200
C3304       C  0.68114895  0.91239289  0.78891850     0.38200
C3305       C  0.69384314  0.92113963  0.71009030     0.36600
C3306       C  0.68091104  0.81253442  0.76450103     0.36600
N3307       N  0.70741664  0.94863833  0.69975805    -0.38200
N3308       N  0.68813821  0.79626171  0.77422610    -0.38200
N3309       N  0.68822753  0.93629628  0.80862817    -0.37600
N3310       N  0.69709635  0.80537496  0.66513368    -0.37600
C3311       C  0.66330914  0.84764973  0.94608007    -0.04300
C3312       C  0.66662306  0.82521455  0.96322144    -0.01400
C3313       C  0.66817221  0.82722400  0.00347855     0.03600
C3314       C  0.66679413  0.85195812  0.52896182    -0.04300
C3315       C  0.67632114  0.88084173  0.00870848    -0.01400
C3316       C  0.67365635  0.87838428  0.96877755     0.03600
C3317       C  0.67657298  0.80580096  0.93909450     0.38200
C3318       C  0.69845370  0.91516413  0.52781528     0.38200
C3319       C  0.68812749  0.90982191  0.94985595     0.36600
C3320       C  0.67864331  0.80903905  0.01803434     0.36600
N3321       N  0.70065120  0.93498122  0.93437525    -0.38200
N3322       N  0.68849949  0.79583278  0.02953435    -0.38200
N3323       N  0.71705740  0.94235974  0.54203568    -0.37600
N3324       N  0.68584341  0.79114477  0.92036320    -0.37600
C3325       C  0.55612521  0.66272397  0.65006467    -0.04300
C3326       C  0.57356376  0.67386966  0.61354604    -0.01400
C3327       C  0.58750664  0.70721109  0.60252740     0.03600
C3328       C  0.58374743  0.72990043  0.62789284    -0.04300
C3329       C  0.56265746  0.71684820  0.66291105    -0.01400
C3330       C  0.55055843  0.68430079  0.67477222     0.03600
C3331       C  0.57815997  0.65123503  0.58740992     0.38200
C3332       C  0.55200815  0.73623346  0.68602086     0.38200
C3333       C  0.53160309  0.67265239  0.71198527     0.36600
C3334       C  0.60533706  0.71729025  0.56480718     0.36600
N3335       N  0.51654776  0.66346356  0.74169809    -0.38200
N3336       N  0.61849324  0.72365684  0.53401999    -0.38200
N3337       N  0.54317097  0.75143626  0.70440308    -0.37600
N3338       N  0.58193419  0.63338520  0.56633437    -0.37600
C3339       C  0.86783783  0.95644953  0.59050158    -0.04300
C3340       C  0.85367707  0.97500998  0.59758496    -0.01400
C3341       C  0.81758246  0.95715786  0.59705356     0.03600
C3342       C  0.79562031  0.92109418  0.58918214    -0.04300
C3343       C  0.81008842  0.90356371  0.57712942    -0.01400
C3344       C  0.84600807  0.92113883  0.57719817     0.03600
C3345       C  0.87540821  0.01200046  0.60657048     0.38200
C3346       C  0.78745892  0.86677619  0.56700183     0.38200
C3347       C  0.86016060  0.90219986  0.56537886     0.36600
C3348       C  0.80256319  0.97551177  0.60528904     0.36600
N3349       N  0.87205450  0.88757986  0.55687992    -0.38200
N3350       N  0.79046869  0.99008237  0.61158577    -0.38200
N3351       N  0.76937648  0.83738972  0.55898080    -0.37600
N3352       N  0.89233571  0.04167457  0.61297358    -0.37600
C3353       C  0.58064141  0.94739481  0.64693950    -0.04300
C3354       C  0.56769263  0.91732516  0.66638065    -0.01400
C3355       C  0.58288590  0.90008897  0.65733492     0.03600
C3356       C  0.61317337  0.91431235  0.63188984    -0.04300
C3357       C  0.62737311  0.94520476  0.61414121    -0.01400
C3358       C  0.61103482  0.96142047  0.62111439     0.03600
C3359       C  0.54003003  0.90460443  0.69728040     0.38200
C3360       C  0.65982243  0.96148824  0.58994257     0.38200
C3361       C  0.62737480  0.99408890  0.60373295     0.36600
C3362       C  0.56677427  0.86701089  0.67352928     0.36600
N3363       N  0.64349747  0.52522025  0.60202528    -0.38200
N3364       N  0.55372254  0.84050205  0.68623678    -0.38200
N3365       N  0.68579051  0.97558907  0.57062374    -0.37600
N3366       N  0.01404232  0.88968691  0.72209523    -0.37600
C3367       C  0.56231822  0.64854513  0.85922519    -0.04300
C3368       C  0.59899156  0.67463650  0.85753037    -0.01400
C3369       C  0.61377600  0.70946283  0.85214507     0.03600
C3370       C  0.59261398  0.71951627  0.85078442    -0.04300
C3371       C  0.55663478  0.69396643  0.85003898    -0.01400
C3372       C  0.54151137  0.65849040  0.85316847     0.03600
C3373       C  0.62220148  0.66670325  0.86262684     0.38200
C3374       C  0.53510225  0.70453972  0.84774660     0.38200
C3375       C  0.50427321  0.63297577  0.85249653     0.36600
C3376       C  0.65116841  0.73551240  0.84853423     0.36600
N3377       N  0.97288639  0.61366648  0.85900795    -0.38200
N3378       N  0.68104925  0.75597340  0.84516338    -0.38200
N3379       N  0.51775681  0.71284658  0.84603033    -0.37600
N3380       N  0.64137622  0.66132793  0.86699636    -0.37600
C3381       C  0.78573498  0.91428826  0.84772340    -0.04300
C3382       C  0.79760379  0.89418268  0.84364784    -0.01400
C3383       C  0.83178651  0.90954520  0.85025936     0.03600
C3384       C  0.85437210  0.94549009  0.86045924    -0.04300
C3385       C  0.84349426  0.96633289  0.85881805    -0.01400
C3386       C  0.80881189  0.95040863  0.85338852     0.03600
C3387       C  0.77378560  0.85727135  0.83449788     0.38200
C3388       C  0.86690792  0.50503360  0.86662436     0.38200
C3389       C  0.79597665  0.97063529  0.85589720     0.36600
C3390       C  0.84309478  0.88791272  0.84691510     0.36600
N3391       N  0.78425815  0.48579048  0.86142199    -0.38200
N3392       N  0.85121415  0.86987346  0.84405349    -0.38200
N3393       N  0.88505426  0.53494273  0.87096606    -0.37600
N3394       N  0.75485250  0.82786122  0.82697570    -0.37600
C3395       C  0.55235644  0.91726382  0.90522058    -0.04300
C3396       C  0.57581939  0.92483037  0.93051064    -0.01400
C3397       C  0.59392835  0.91051612  0.92352263     0.03600
C3398       C  0.58685458  0.88600276  0.89295370    -0.04300
C3399       C  0.56035111  0.87528144  0.87049888    -0.01400
C3400       C  0.54404517  0.89157433  0.87573065     0.03600
C3401       C  0.58246628  0.94799444  0.96375453     0.38200
C3402       C  0.54885058  0.84656013  0.84278257     0.38200
C3403       C  0.51782364  0.88069841  0.85132320     0.36600
C3404       C  0.62064549  0.92255752  0.94774029     0.36600
N3405       N  0.99318227  0.86445457  0.83390802    -0.38200
N3406       N  0.64117526  0.93291290  0.96847197    -0.38200
N3407       N  0.53950149  0.82361423  0.82067024    -0.37600
N3408       N  0.58823898  0.96585680  0.99084651    -0.37600
C3409       C  0.90357947  0.56162153  0.70356931    -0.04300
C3410       C  0.86901318  0.54323605  0.72120960    -0.01400
C3411       C  0.85168720  0.55851856  0.72560966     0.03600
C3412       C  0.86963992  0.59299788  0.71536303    -0.04300
C3413       C  0.90449457  0.61194063  0.70057438    -0.01400
C3414       C  0.92033005  0.59556935  0.69143543     0.03600
C3415       C  0.85073217  0.50827387  0.73337144     0.38200
C3416       C  0.92518644  0.64916954  0.69784329     0.38200
C3417       C  0.95288272  0.61365934  0.66736835     0.36600
C3418       C  0.81556911  0.53909089  0.74091466     0.36600
N3419       N  0.48059332  0.63301613  0.64223570    -0.38200
N3420       N  0.78664796  0.52340479  0.75296167    -0.38200
N3421       N  0.94302832  0.67910128  0.69697447    -0.37600
N3422       N  0.84026475  0.98658713  0.74351638    -0.37600
C3423       C  0.89274020  0.78349627  0.72930732    -0.04300
C3424       C  0.87967562  0.80179144  0.74585152    -0.01400
C3425       C  0.89609644  0.83606220  0.73560386     0.03600
C3426       C  0.92562059  0.85227943  0.70866394    -0.04300
C3427       C  0.93771046  0.83350531  0.69086769    -0.01400
C3428       C  0.92243234  0.79998366  0.70247868     0.03600
C3429       C  0.84821465  0.78483313  0.77170016     0.38200
C3430       C  0.96322649  0.84710416  0.65791665     0.38200
C3431       C  0.93716347  0.78221480  0.68663299     0.36600
C3432       C  0.88108539  0.85379945  0.75037751     0.36600
N3433       N  0.94941115  0.76843759  0.67417955    -0.38200
N3434       N  0.86899045  0.86801105  0.76103420    -0.38200
N3435       N  0.98287960  0.85753810  0.63101121    -0.37600
N3436       N  0.82307552  0.77206374  0.79237625    -0.37600
C3437       C  0.69293109  0.59062944  0.76042119    -0.04300
C3438       C  0.68132903  0.61099576  0.77025639    -0.01400
C3439       C  0.64576857  0.59575987  0.77163146     0.03600
C3440       C  0.62116773  0.55964249  0.76286395    -0.04300
C3441       C  0.63282861  0.53884923  0.75718062    -0.01400
C3442       C  0.66867092  0.55451198  0.75506912     0.03600
C3443       C  0.70649771  0.64822624  0.77611121     0.38200
C3444       C  0.60863556  0.50153344  0.75249814     0.38200
C3445       C  0.68107080  0.53381303  0.74571240     0.36600
C3446       C  0.63512433  0.61803055  0.77991623     0.36600
N3447       N  0.69107359  0.51738264  0.73799480    -0.38200
N3448       N  0.62684668  0.63598765  0.78541490    -0.38200
N3449       N  0.58975192  0.47157834  0.74989306    -0.37600
N3450       N  0.72635249  0.67799686  0.78054563    -0.37600
C3451       C  0.91555892  0.57140806  0.95481181    -0.04300
C3452       C  0.87903970  0.54799578  0.96261854    -0.01400
C3453       C  0.86127665  0.56338767  0.46699929     0.03600
C3454       C  0.87550861  0.59587275  0.96503628    -0.04300
C3455       C  0.91195300  0.61925763  0.95785319    -0.01400
C3456       C  0.93204670  0.60721009  0.95398515     0.03600
C3457       C  0.86595096  0.51543817  0.46385913     0.38200
C3458       C  0.92858841  0.65577758  0.95465191     0.38200
C3459       C  0.96962854  0.63170278  0.95126224     0.36600
C3460       C  0.82418866  0.53929627  0.47720925     0.36600
N3461       N  0.99958757  0.65117697  0.94981088    -0.38200
N3462       N  0.79459103  0.52007527  0.48561851    -0.38200
N3463       N  0.94170606  0.68486012  0.95174720    -0.37600
N3464       N  0.85318866  0.98797868  0.47447348    -0.37600
C3465       C  0.89213540  0.78574437  0.99944366    -0.04300
C3466       C  0.92953583  0.81525313  0.50338090    -0.01400
C3467       C  0.94134599  0.84714819  0.00332125     0.03600
C3468       C  0.92010795  0.85650190  0.99674984    -0.04300
C3469       C  0.88365075  0.82956548  0.99647249    -0.01400
C3470       C  0.86997834  0.79466002  0.99896318     0.03600
C3471       C  0.95186596  0.80577082  0.50642021     0.38200
C3472       C  0.85953908  0.83673500  0.99286750     0.38200
C3473       C  0.83278462  0.76757468  0.00219571     0.36600
C3474       C  0.97969608  0.87673387  0.50774947     0.36600
N3475       N  0.80306478  0.74621260  0.00588856    -0.38200
N3476       N  0.51235529  0.89801355  0.50673859    -0.38200
N3477       N  0.83979279  0.84170178  0.98973075    -0.37600
N3478       N  0.96979382  0.79830221  0.50877388    -0.37600
C3479       C  0.63204088  0.55228796  0.97801192    -0.04300
C3480       C  0.65109432  0.54350318  0.95261714    -0.01400
C3481       C  0.68499171  0.55721271  0.95914801     0.03600
C3482       C  0.70065069  0.58118071  0.98998641    -0.04300
C3483       C  0.68148757  0.59307913  0.51896497    -0.01400
C3484       C  0.64711108  0.57814534  0.51322418     0.03600
C3485       C  0.63670853  0.52218857  0.91851018     0.38200
C3486       C  0.69562410  0.61526209  0.55259260     0.38200
C3487       C  0.62858477  0.58894840  0.53815778     0.36600
C3488       C  0.70386071  0.54672795  0.93414650     0.36600
N3489       N  0.61546819  0.59934327  0.55817691    -0.38200
N3490       N  0.71878824  0.53819112  0.91422048    -0.38200
N3491       N  0.70574120  0.63218146  0.58017529    -0.37600
N3492       N  0.62537802  0.50536432  0.89118173    -0.37600
C3493       C  0.82884297  0.66405975  0.90157586    -0.04300
C3494       C  0.84208131  0.65093833  0.87297026    -0.01400
C3495       C  0.82960637  0.64059925  0.83696678     0.03600
C3496       C  0.82262855  0.66017522  0.82044021    -0.01700
C3497       C  0.81341738  0.67830421  0.84740793    -0.01400
C3498       C  0.81432781  0.67826705  0.88757403     0.03600
C3499       C  0.87763598  0.66404545  0.87280785     0.38200
C3500       C  0.79943193  0.69378498  0.83464385     0.38200
C3501       C  0.80034377  0.69301700  0.91392573     0.36600
C3502       C  0.80730835  0.60350802  0.82921561     0.36600
N3503       N  0.78853679  0.70447469  0.93452209    -0.38200
N3504       N  0.78896515  0.57376110  0.82338299    -0.38200
N3505       N  0.78751540  0.70563733  0.82488018    -0.37600
N3506       N  0.90637108  0.67495958  0.87198614    -0.37600
C3507       C  0.81979090  0.65632539  0.65223256    -0.04300
C3508       C  0.79875981  0.66168623  0.63580369    -0.01400
C3509       C  0.80261447  0.66558604  0.59568037     0.03600
C3510       C  0.82567958  0.66177459  0.56994535    -0.04300
C3511       C  0.85229934  0.66631129  0.58729510    -0.01400
C3512       C  0.84975578  0.66439066  0.62750091     0.03600
C3513       C  0.77718803  0.66917986  0.66017656     0.38200
C3514       C  0.88514049  0.67895229  0.56487275     0.38200
C3515       C  0.88116554  0.67772481  0.64353925     0.36600
C3516       C  0.78892207  0.68124887  0.58226012     0.36600
N3517       N  0.90703657  0.68975426  0.65548970    -0.38200
N3518       N  0.77938704  0.69514476  0.57168178    -0.38200
N3519       N  0.91149322  0.68943091  0.54717718    -0.37600
N3520       N  0.76009427  0.67571199  0.67895727    -0.37600
loop_ 
_geom_bond_atom_site_label_1 
_geom_bond_atom_site_label_2 
_geom_bond_distance 
_geom_bond_site_symmetry_2 
_ccdc_geom_bond_type 
C1            C3   1.551       .  S
C1            C5   1.535       .  S
C1            C4   1.549       .  S
C1          C430   1.590       .  S
C2            C6   1.565       .  S
C2            C8   1.538       .  S
C2            C7   1.537       .  S
C2          C413   1.595       .  S
C3           C11   1.383       .  A
C3          C446   1.416   1_554  A
C4           C15   1.383       .  A
C4          C447   1.406   1_554  A
C5           C19   1.376       .  A
C5          C448   1.404   1_554  A
C6            C9   1.384       .  A
C6          C443   1.415       .  A
C7           C13   1.368       .  A
C7          C444   1.409       .  A
C8           C16   1.376       .  A
C8          C445   1.405       .  A
C9           N10   1.353       .  A
C9           H22   1.077       .  S
N10         C451   1.353       .  A
N10         C374   1.438       .  S
C11         N450   1.354   1_554  A
C11          H12   1.082       .  S
C13         N454   1.355       .  A
C13          H23   1.082       .  S
N14          C15   1.361   1_556  A
N14         C453   1.358       .  A
N14         C842   1.445       .  S
C15          H21   1.082       .  S
C16         N457   1.359       .  A
C16          H18   1.082       .  S
N17          C19   1.354   1_556  A
N17         C456   1.359       .  A
N17         C825   1.435   1_556  S
C19          H20   1.082       .  S
C24          C26   1.549       .  S
C24          C28   1.554       .  S
C24          C27   1.534       .  S
C24         C427   1.602       .  S
C25          C29   1.559       .  S
C25          C31   1.550       .  S
C25          C30   1.552       .  S
C25         C416   1.596       .  S
C26          C34   1.382       .  A
C26          C29   1.411       .  A
C27          C38   1.368       .  A
C27          C30   1.404       .  A
C28          C42   1.381       .  A
C28          C31   1.414       .  A
C29          C32   1.383       .  A
C30          C36   1.390       .  A
C31          C39   1.381       .  A
C32          N33   1.351       .  A
C32          H45   1.078       .  S
N33          C34   1.355       .  A
N33         C332   1.438       .  S
C34          H35   1.082       .  S
C36          N37   1.363       .  A
C36          H46   1.082       .  S
N37          C38   1.353       .  A
N37         C343   1.442       .  S
C38          H44   1.083       .  S
C39          N40   1.357       .  A
C39          H41   1.082       .  S
N40          C42   1.359       .  A
N40         C357   1.442       .  S
C42          H43   1.082       .  S
O47         Zr59   2.461       .  S
O47          C49   1.290       .  A
O48         Zr85   2.414       .  S
O48          C49   1.283       .  A
C49         C315   1.502       .  S
O50         Zr62   2.445       .  S
O50          C52   1.289       .  A
O51       Zr1846   2.445   1_455  S
O51          C52   1.291       .  A
C52         C287   1.512       .  S
O53         Zr62   2.428       .  S
O53          C55   1.285       .  A
O54        Zr965   2.434   1_545  S
O54          C55   1.287       .  A
C55         C399   1.474       .  S
O56         Zr59   2.364       .  S
O56        C2698   1.266   1_455  A
O57         Zr86   2.386   1_565  S
O57          C58   1.268       .  A
C58        O2696   1.266       .  A
C58        C1014   1.418       .  S
Zr59        O940   2.425       .  S
Zr59       O1821   2.435   1_455  S
Zr59        O945   2.342       .  S
Zr59        O946   2.417       .  S
Zr59       O1849   2.376   1_455  S
Zr59       O1851   2.347   1_455  S
O60        Zr939   2.421       .  S
O60         H103   0.990   1_565  S
O61       Zr1819   2.436       .  S
O61         H102   0.989       .  S
O61        H1866   0.990       .  S
Zr62         O63   2.436       .  S
Zr62         O64   2.437       .  S
Zr62         O66   2.348       .  S
Zr62         O65   2.386       .  S
Zr62         O90   2.355       .  S
Zr62         O92   2.378       .  S
O63         H104   0.990       .  S
O63         H107   0.989       .  S
O64          H97   0.990       .  S
O65        Zr939   2.342   1_545  S
O65        Zr965   2.377   1_545  S
O66        Zr939   2.417   1_545  S
O66       Zr1846   2.423   1_455  S
O66          H93   0.968       .  S
O67         Zr79   2.440       .  S
O67          C69   1.289       .  A
O68        Zr966   2.412       .  S
O68          C69   1.285       .  A
C69         C304   1.486       .  S
O70        Zr522   2.395   1_564  S
O70         C952   1.268   1_565  A
O71        Zr525   2.362   1_554  S
O71        C1832   1.259   1_455  A
C72         O950   1.268       .  A
C72        O1831   1.260       .  A
C72        C1000   1.437       .  S
O73         Zr82   2.444       .  S
O73          C75   1.285       .  A
O74         Zr86   2.429       .  S
O74          C75   1.285       .  A
C75         C371   1.478       .  S
O76         Zr79   2.443       .  S
O76          C78   1.287       .  A
O77       Zr1845   2.441       .  S
O77          C78   1.288       .  A
C78         C388   1.517       .  S
Zr79         O80   2.434       .  S
Zr79         O81   2.431       .  S
Zr79         O87   2.378       .  S
Zr79         O88   2.341       .  S
Zr79         O91   2.385       .  S
Zr79         O89   2.340       .  S
O80         H100   0.990       .  S
O80         H105   0.990       .  S
O81         H101   0.990       .  S
Zr82        O510   2.390   1_545  S
Zr82       O1403   2.430       .  S
Zr82       O2284   2.437       .  S
Zr82        O968   2.400   1_545  S
Zr82        O967   2.364       .  S
Zr82       O1852   2.348       .  S
Zr82       O1850   2.395       .  S
O83       Zr1402   2.426   1_554  S
O83          H99   0.990       .  S
O84       Zr2282   2.437   1_454  S
O84          H98   0.989   1_554  S
O84        H1868   0.990       .  S
Zr85        O934   2.440       .  S
Zr85        O511   2.363       .  S
Zr85       O1837   2.443   1_455  S
Zr85        O945   2.375       .  S
Zr85       O1848   2.415   1_455  S
Zr85        O970   2.438       .  S
Zr85       O1851   2.366   1_455  S
Zr86       O1811   2.451       .  S
Zr86        O948   2.414   1_545  S
Zr86       O1826   2.420       .  S
Zr86        O967   2.380       .  S
Zr86        O969   2.394   1_545  S
Zr86       O1852   2.364       .  S
O87        Zr962   2.362       .  S
O87        Zr966   2.381       .  S
O87          H95   0.965       .  S
O88        Zr962   2.401       .  S
O88       Zr1845   2.413       .  S
O89       Zr1819   2.378       .  S
O89        Zr966   2.405       .  S
O90       Zr1842   2.391   1_455  S
O90        Zr965   2.432   1_545  S
O90         H534   0.963       .  S
O91       Zr1819   2.349       .  S
O91       Zr1845   2.365       .  S
O91          H96   0.965       .  S
O92       Zr1842   2.352   1_455  S
O92       Zr1846   2.367   1_455  S
H94         O530   0.962       .  S
H106       O1821   0.990       .  S
H108       O1844   0.990       .  S
O109       Zr121   2.446       .  S
O109        C111   1.287       .  A
O110       Zr147   2.408       .  S
O110        C111   1.281       .  A
C111        C273   1.498       .  S
O112       Zr124   2.458       .  S
O112        C114   1.290       .  A
O113      Zr1908   2.421   1_455  S
O113        C114   1.285       .  A
C114        C245   1.487       .  S
O115       Zr124   2.428       .  S
O115        C117   1.286       .  A
O116      Zr1027   2.463   1_545  S
O116        C117   1.294       .  A
C117        C360   1.511       .  S
O118       Zr121   2.425       .  S
O118       C2760   1.269       .  A
O119       Zr148   2.382       .  S
O119        C120   1.266       .  A
C120       O2758   1.269       .  A
C120        C952   1.438       .  S
Zr121      O1002   2.438       .  S
Zr121      O1883   2.436       .  S
Zr121      O1007   2.342       .  S
Zr121      O1008   2.391       .  S
Zr121      O1911   2.400   1_455  S
Zr121      O1913   2.389   1_455  S
O122      Zr1001   2.436       .  S
O122        H165   0.990       .  S
O123      Zr1881   2.435       .  S
O123        H164   0.990       .  S
O123       H1928   0.990       .  S
Zr124       O125   2.436       .  S
Zr124       O126   2.438       .  S
Zr124       O128   2.343       .  S
Zr124       O127   2.394       .  S
Zr124       O152   2.358       .  S
Zr124       O154   2.377   1_455  S
O125        H166   0.989       .  S
O125        H169   0.990       .  S
O126        H159   0.990       .  S
O127      Zr1001   2.338       .  S
O127      Zr1027   2.376   1_545  S
O128      Zr1001   2.397       .  S
O128      Zr1908   2.406   1_455  S
O128        H155   0.966       .  S
O129       Zr141   2.421       .  S
O129        C131   1.283       .  A
O130      Zr1028   2.456       .  S
O130        C131   1.289       .  A
C131        C259   1.506       .  S
O132       Zr144   2.434   1_565  S
O132       C1014   1.272       .  A
O133       Zr147   2.403   1_655  S
O133       C1894   1.266       .  A
C134       O1012   1.270       .  A
C134       O1893   1.265       .  A
C134        C938   1.426       .  S
O135       Zr144   2.466       .  S
O135        C137   1.291       .  A
O136       Zr148   2.393       .  S
O136        C137   1.280       .  A
C137        C329   1.497       .  S
O138       Zr141   2.427       .  S
O138        C140   1.283       .  A
O139      Zr1907   2.432       .  S
O139        C140   1.286       .  A
C140        C346   1.478       .  S
Zr141       O142   2.437       .  S
Zr141       O143   2.440       .  S
Zr141       O149   2.402       .  S
Zr141       O153   2.391       .  S
Zr141       O151   2.322       .  S
Zr141       O150   2.248       .  S
O142        H162   0.990       .  S
O142        H167   0.990       .  S
O143        H163   0.990       .  S
Zr144      O1025   2.433   1_545  S
Zr144      O1906   2.439       .  S
Zr144      O1030   2.375   1_545  S
Zr144      O1029   2.365   1_545  S
Zr144      O1914   2.361       .  S
Zr144      O1912   2.410       .  S
O145      Zr1024   2.435       .  S
O145        H161   0.990       .  S
O146      Zr1904   2.437       .  S
O146        H160   0.990       .  S
O146       H1930   0.990       .  S
Zr147       O996   2.460       .  S
Zr147      O1899   2.439   1_455  S
Zr147      O1007   2.377       .  S
Zr147      O1032   2.444       .  S
Zr147      O1913   2.378   1_455  S
Zr147      O1910   2.278   1_455  S
Zr148      O1873   2.420       .  S
Zr148      O1010   2.468       .  S
Zr148      O1888   2.413       .  S
Zr148      O1029   2.376   1_545  S
Zr148      O1031   2.399   1_545  S
Zr148      O1914   2.375       .  S
O149      Zr1024   2.357       .  S
O149      Zr1028   2.387       .  S
O149        H157   0.965       .  S
O150      Zr1024   2.292       .  S
O150      Zr1907   2.283       .  S
O151      Zr1881   2.407       .  S
O151      Zr1028   2.403       .  S
O152      Zr1904   2.409   1_455  S
O152      Zr1027   2.449   1_545  S
O152        H156   0.960       .  S
O153      Zr1881   2.391       .  S
O153      Zr1907   2.380       .  S
O153        H158   0.966       .  S
O154      Zr1904   2.358       .  S
O154      Zr1908   2.371       .  S
H168       O1883   0.990       .  S
H170       O1906   0.990       .  S
C171        C173   1.561       .  S
C171        C175   1.531       .  S
C171        C174   1.561       .  S
C171        C220   1.603       .  S
C172        C176   1.546       .  S
C172        C178   1.530       .  S
C172        C177   1.555       .  S
C172        C231   1.602       .  S
C173        C181   1.385       .  A
C173        C176   1.411       .  A
C174        C185   1.386       .  A
C174        C177   1.418       .  A
C175        C189   1.376       .  A
C175        C178   1.398       .  A
C176        C179   1.376       .  A
C177        C183   1.380       .  A
C178        C186   1.369       .  A
C179        N180   1.359       .  A
C179        H192   1.082       .  S
N180        C181   1.364       .  A
N180        C318   1.455       .  S
C181        H182   1.082       .  S
C183        N184   1.357       .  A
C183        H193   1.081       .  S
N184        C185   1.357       .  A
N184        C290   1.443       .  S
C185        H191   1.082       .  S
C186        N187   1.353       .  A
C186        H188   1.083       .  S
N187        C189   1.353       .  A
N187        C301   1.427       .  S
C189        H190   1.082       .  S
C194        C196   1.549       .  S
C194        C198   1.543       .  S
C194        C197   1.561       .  S
C194        C234   1.597       .  S
C195        C199   1.553       .  S
C195        C201   1.537       .  S
C195        C200   1.542       .  S
C195        C217   1.604       .  S
C196        C204   1.380       .  A
C196        C199   1.415       .  A
C197        C208   1.391       .  A
C197        C200   1.404       .  A
C198        C212   1.379       .  A
C198        C201   1.406       .  A
C199        C202   1.376       .  A
C200        C206   1.367       .  A
C201        C209   1.375       .  A
C202        N203   1.356       .  A
C202        H215   1.080       .  S
N203        C204   1.356       .  A
N203        C276   1.442       .  S
C204        H205   1.082       .  S
C206        N207   1.356       .  A
C206        H216   1.079       .  S
N207        C208   1.369       .  A
N207        C248   1.460       .  S
C208        H214   1.080       .  S
C209        N210   1.358       .  A
C209        H211   1.082       .  S
N210        C212   1.358       .  A
N210        C262   1.439       .  S
C212        H213   1.082       .  S
C217        C218   1.427       .  A
C217        C222   1.426       .  A
C218        C219   1.436       .  A
C218        C223   1.452       .  S
C219        C220   1.430       .  A
C219        C226   1.449       .  S
C220        C221   1.431       .  A
C221        C222   1.441       .  A
C221        C224   1.449       .  S
C222        C225   1.449       .  S
C223        N230   1.158       .  T
C224        N229   1.158       .  T
C225        N227   1.158       .  T
C226        N228   1.157       .  T
C231        C232   1.430       .  A
C231        C236   1.431       .  A
C232        C233   1.439       .  A
C232        C237   1.445       .  S
C233        C674   1.421       .  A
C233        C240   1.450       .  S
C234        C673   1.423       .  A
C234        C675   1.424       .  A
C235        C236   1.436       .  A
C235        C674   1.424       .  A
C235        C678   1.447       .  S
C236        C239   1.451       .  S
C237        N244   1.156       .  T
C238        C675   1.448       .  S
C238        N243   1.157       .  T
C239        N241   1.158       .  T
C240        N242   1.157       .  T
C245        C246   1.410       .  A
C245        C250   1.409       .  A
C246        C247   1.413       .  A
C246        C251   1.449       .  S
C247        C248   1.418       .  A
C247        C254   1.447       .  S
C248        C249   1.423       .  A
C249        C250   1.414       .  A
C249        C252   1.451       .  S
C250        C253   1.452       .  S
C251        N258   1.156       .  T
C252        N257   1.158       .  T
C253        N255   1.157       .  T
C254        N256   1.157       .  T
C259        C260   1.422       .  A
C259        C264   1.425       .  A
C260        C261   1.415       .  A
C260        C265   1.448       .  S
C261        C262   1.407       .  A
C261        C268   1.450       .  S
C262        C263   1.403       .  A
C263        C264   1.409       .  A
C263        C266   1.450       .  S
C264        C267   1.449       .  S
C265        N272   1.157       .  T
C266        N271   1.157       .  T
C267        N269   1.156       .  T
C268        N270   1.157       .  T
C273        C274   1.423       .  A
C273        C278   1.419       .  A
C274        C275   1.408       .  A
C274        C279   1.450       .  S
C275        C276   1.408       .  A
C275        C282   1.452       .  S
C276        C277   1.411       .  A
C277        C278   1.412       .  A
C277        C280   1.448       .  S
C278        C281   1.453       .  S
C279       N2046   1.157       .  T
C280        N285   1.156       .  T
C281       N1163   1.158       .  T
C282        N284   1.157       .  T
N283       C1161   1.158   1_545  T
N286       C2039   1.157       .  T
C287        C288   1.426       .  A
C287        C292   1.426       .  A
C288        C289   1.409       .  A
C288        C293   1.451       .  S
C289        C290   1.404       .  A
C289        C296   1.450       .  S
C290        C291   1.405       .  A
C291        C292   1.419       .  A
C291        C294   1.448       .  S
C292        C295   1.450       .  S
C293        N300   1.157       .  T
C294        N299   1.157       .  T
C295       N2057   1.157   1_455  T
C296        N298   1.157       .  T
N297       C2055   1.157       .  T
C301        C302   1.401       .  A
C301        C306   1.403       .  A
C302        C303   1.403       .  A
C302        C307   1.450       .  S
C303        C304   1.418       .  A
C303        C310   1.450       .  S
C304        C305   1.419       .  A
C305        C306   1.409       .  A
C305       C1188   1.449       .  S
C306        C309   1.449       .  S
C307        N314   1.157       .  T
C308       C1185   1.450   1_545  S
C308        N313   1.157       .  T
C309       N1191   1.157       .  T
C310        N312   1.157       .  T
N311       C1189   1.157       .  T
C315        C316   1.418       .  A
C315        C320   1.417       .  A
C316        C317   1.411       .  A
C316        C321   1.452       .  S
C317        C318   1.417       .  A
C317        C324   1.450       .  S
C318        C319   1.415       .  A
C319        C320   1.418       .  A
C319        C322   1.449       .  S
C320        C323   1.450       .  S
C321        N328   1.157       .  T
C322        N327   1.157       .  T
C323       N2085   1.157   1_455  T
C324        N326   1.157       .  T
N325       C2083   1.157       .  T
C329        C330   1.418       .  A
C329        C334   1.421       .  A
C330        C331   1.417       .  A
C330        C335   1.451       .  S
C331        C332   1.411       .  A
C331        C338   1.448       .  S
C332        C333   1.399       .  A
C333        C334   1.403       .  A
C333        C336   1.448       .  S
C334        C337   1.447       .  S
C335       N1222   1.158   1_545  T
C336        N341   1.156       .  T
C337       N2099   1.155       .  T
C338        N340   1.157       .  T
N339       C2097   1.156       .  T
N342       C1215   1.157       .  T
C343        C344   1.411       .  A
C343        C348   1.413       .  A
C344        C345   1.412       .  A
C344        C349   1.447       .  S
C345        C346   1.411       .  A
C345        C352   1.450       .  S
C346        C347   1.406       .  A
C347        C348   1.408       .  A
C347        C350   1.451       .  S
C348        C351   1.446       .  S
C349        N356   1.157       .  T
C350        N355   1.157       .  T
C351        N353   1.156       .  T
C352        N354   1.157       .  T
C357        C358   1.403       .  A
C357        C362   1.404       .  A
C358        C359   1.411       .  A
C358        C363   1.450       .  S
C359        C360   1.427       .  A
C359        C366   1.451       .  S
C360        C361   1.424       .  A
C361        C362   1.417       .  A
C361        C364   1.447       .  S
C362        C365   1.449       .  S
C363        N370   1.157       .  T
C364        N369   1.157   1_545  T
C365        N367   1.157       .  T
C366        N368   1.157       .  T
C371        C372   1.414       .  A
C371        C376   1.410       .  A
C372        C813   1.411       .  A
C372        C817   1.451       .  S
C373        C812   1.415       .  A
C373        C814   1.408       .  A
C373        C380   1.448       .  S
C374        C375   1.412       .  A
C374        C813   1.405       .  A
C375        C376   1.411       .  A
C375        C378   1.450       .  S
C376        C379   1.451       .  S
C377        C812   1.451       .  S
C377       N1264   1.157   1_545  T
C378        N383   1.157       .  T
C379        N381   1.157       .  T
C380        N382   1.157       .  T
N384       C1257   1.157       .  T
C385        C390   1.400       .  A
C385        C826   1.402       .  A
C385        N457   1.439       .  S
C386        C825   1.402       .  A
C386        C827   1.413       .  A
C386        C391   1.449       .  S
C387        C388   1.431       .  A
C387        C826   1.417       .  A
C387        C834   1.451       .  S
C388        C389   1.431       .  A
C389        C390   1.409       .  A
C389        C392   1.451       .  S
C390        C393   1.450       .  S
C391        N398   1.157       .  T
C392        N397   1.158       .  T
C393        N395   1.157       .  T
C394        C827   1.451       .  S
C394       N2156   1.158       .  T
N396       C2154   1.157   1_455  T
C399        C400   1.409       .  A
C399        C844   1.406       .  A
C400        C401   1.410       .  A
C400        C405   1.452       .  S
C401        C402   1.418       .  A
C401        C408   1.450       .  S
C402        C843   1.414       .  A
C402        N454   1.447       .  S
C403        C404   1.407       .  A
C403        C842   1.413   1_554  A
C403        C406   1.447       .  S
C404        C839   1.407   1_554  A
C404        C407   1.447       .  S
C405        N412   1.157       .  T
C406        N411   1.157       .  T
C407        N409   1.155       .  T
C408        N410   1.158       .  T
C413        C414   1.410       .  A
C413        C418   1.433       .  A
C414        C415   1.410       .  A
C414        C419   1.442       .  S
C415        C416   1.417       .  A
C415        C422   1.443       .  S
C416        C417   1.428       .  A
C417        C418   1.443       .  A
C417        C420   1.445       .  S
C418        C421   1.445       .  S
C419        N426   1.157       .  T
C420        N425   1.156       .  T
C421        N423   1.156       .  T
C422        N424   1.157       .  T
C427        C428   1.430       .  A
C427        C432   1.430       .  A
C428        C429   1.439       .  A
C428        C433   1.448       .  S
C429        C430   1.426       .  A
C429        C436   1.450       .  S
C430        C431   1.421       .  A
C431        C432   1.432       .  A
C431        C434   1.452       .  S
C432        C435   1.443       .  S
C433        N440   1.158       .  T
C434        N439   1.158       .  T
C435        N437   1.154       .  T
C436        N438   1.157       .  T
C441        C443   1.547       .  S
C441        C445   1.543       .  S
C441        C444   1.550       .  S
C441        C870   1.597       .  S
C442        C446   1.566       .  S
C442        C448   1.541       .  S
C442        C447   1.540       .  S
C442        C853   1.595       .  S
C443        C451   1.380       .  A
C444        C455   1.384       .  A
C445        C459   1.379       .  A
C446        C449   1.388       .  A
C447        C453   1.370       .  A
C448        C456   1.376       .  A
C449        N450   1.355       .  A
C449        H462   1.078       .  S
N450        C814   1.442       .  S
C451        H452   1.081       .  S
C453        H463   1.082       .  S
N454        C455   1.360       .  A
C455        H461   1.081       .  S
C456        H458   1.082       .  S
N457        C459   1.358       .  A
C459        H460   1.082       .  S
C464        C466   1.548       .  S
C464        C468   1.552       .  S
C464        C467   1.536       .  S
C464        C867   1.604       .  S
C465        C469   1.561       .  S
C465        C471   1.555       .  S
C465        C470   1.555       .  S
C465        C856   1.600       .  S
C466        C474   1.382       .  A
C466        C469   1.411       .  A
C467        C478   1.371       .  A
C467        C470   1.405       .  A
C468        C482   1.381       .  A
C468        C471   1.414       .  A
C469        C472   1.385       .  A
C470        C476   1.391       .  A
C471        C479   1.384       .  A
C472        N473   1.350       .  A
C472        H485   1.079       .  S
N473        C474   1.354       .  A
N473        C772   1.436       .  S
C474        H475   1.082       .  S
C476        N477   1.366       .  A
C476        H486   1.082       .  S
N477        C478   1.353       .  A
N477        C783   1.447       .  S
C478        H484   1.083       .  S
C479        N480   1.360       .  A
C479        H481   1.082       .  S
N480        C482   1.357       .  A
N480        C797   1.445       .  S
C482        H483   1.082       .  S
O487       Zr499   2.461       .  S
O487        C489   1.290       .  A
O488       Zr525   2.407       .  S
O488        C489   1.282       .  A
C489        C755   1.500       .  S
O490       Zr502   2.443       .  S
O490        C492   1.289       .  A
O491      Zr2286   2.458   1_455  S
O491        C492   1.293       .  A
C492        C727   1.516       .  S
O493       Zr502   2.430       .  S
O493        C495   1.285       .  A
O494      Zr1405   2.433   1_545  S
O494        C495   1.287       .  A
C495        C839   1.474       .  S
O496       Zr499   2.366       .  S
O496       C3138   1.265   1_455  A
O497       Zr526   2.383   1_565  S
O497        C498   1.266       .  A
C498       O3136   1.264       .  A
C498       C1454   1.419       .  S
Zr499      O1380   2.426       .  S
Zr499      O2261   2.434   1_455  S
Zr499      O1385   2.343       .  S
Zr499      O1386   2.419       .  S
Zr499      O2289   2.376   1_455  S
Zr499      O2291   2.350   1_455  S
O500      Zr1379   2.432       .  S
O500        H543   0.990       .  S
O501      Zr2259   2.433       .  S
O501        H542   0.989       .  S
O501       H2306   0.990       .  S
Zr502       O503   2.437       .  S
Zr502       O504   2.437       .  S
Zr502       O506   2.345       .  S
Zr502       O505   2.385       .  S
Zr502       O530   2.353       .  S
Zr502       O532   2.382       .  S
O503        H544   0.990       .  S
O503        H547   0.990       .  S
O504        H537   0.990       .  S
O505      Zr1379   2.341   1_545  S
O505      Zr1405   2.376   1_545  S
O506      Zr1379   2.416   1_545  S
O506      Zr2286   2.420   1_455  S
O506        H533   0.968       .  S
O507       Zr519   2.435       .  S
O507        C509   1.288       .  A
O508      Zr1406   2.417       .  S
O508        C509   1.286       .  A
C509        C744   1.486       .  S
O510       C1392   1.267   1_565  A
O511       C2272   1.260   1_455  A
C512       O1390   1.269       .  A
C512       O2271   1.260       .  A
C512       C1440   1.442       .  S
O513       Zr522   2.449       .  S
O513        C515   1.286       .  A
O514       Zr526   2.434       .  S
O514        C515   1.286       .  A
C515        C811   1.483       .  S
O516       Zr519   2.418       .  S
O516        C518   1.282       .  A
O517      Zr2285   2.439       .  S
O517        C518   1.288       .  A
C518        C828   1.507       .  S
Zr519       O520   2.434       .  S
Zr519       O521   2.429       .  S
Zr519       O527   2.378       .  S
Zr519       O528   2.334       .  S
Zr519       O531   2.389       .  S
Zr519       O529   2.323       .  S
O520        H540   0.990   1_556  S
O520        H545   0.990       .  S
O521        H541   0.990       .  S
Zr522       O963   2.422   1_556  S
Zr522      O1844   2.438   1_556  S
Zr522      O1408   2.397   1_545  S
Zr522      O1407   2.363       .  S
Zr522      O2292   2.350       .  S
Zr522      O2290   2.398       .  S
O523       Zr962   2.426       .  S
O523        H539   0.990       .  S
O524      Zr1842   2.438   1_455  S
O524        H538   0.990       .  S
O524       H2308   0.990       .  S
Zr525      O1374   2.437       .  S
Zr525      O2277   2.442   1_455  S
Zr525      O1385   2.379       .  S
Zr525      O2288   2.407   1_455  S
Zr525      O1410   2.432       .  S
Zr525      O2291   2.363   1_455  S
Zr526      O2251   2.448       .  S
Zr526      O1388   2.411   1_545  S
Zr526      O2266   2.424       .  S
Zr526      O1407   2.378       .  S
Zr526      O1409   2.402   1_545  S
Zr526      O2292   2.365       .  S
O527      Zr1402   2.365       .  S
O527      Zr1406   2.375       .  S
O527        H535   0.965       .  S
O528      Zr1402   2.395       .  S
O528      Zr2285   2.410       .  S
O529      Zr2259   2.372       .  S
O529      Zr1406   2.397       .  S
O530      Zr2282   2.400   1_455  S
O530      Zr1405   2.435   1_545  S
O531      Zr2259   2.348       .  S
O531      Zr2285   2.365       .  S
O531        H536   0.965       .  S
O532      Zr2282   2.350   1_455  S
O532      Zr2286   2.363   1_455  S
H546       O2261   0.990       .  S
H548       O2284   0.990       .  S
O549       Zr561   2.476       .  S
O549        C551   1.293       .  A
O550       Zr587   2.401       .  S
O550        C551   1.279       .  A
C551        C713   1.507       .  S
O552       Zr564   2.468       .  S
O552        C554   1.291       .  A
O553      Zr2348   2.411   1_455  S
O553        C554   1.283       .  A
C554        C685   1.486       .  S
O555       Zr564   2.435       .  S
O555        C557   1.287       .  A
O556      Zr1467   2.464   1_545  S
O556        C557   1.294       .  A
C557        C800   1.514       .  S
O558       Zr561   2.425       .  S
O558       C3200   1.268       .  A
O559       Zr588   2.396       .  S
O559        C560   1.268       .  A
C560       O3198   1.268       .  A
C560       C1392   1.437       .  S
Zr561      O1442   2.435       .  S
Zr561      O2323   2.436       .  S
Zr561      O1447   2.337       .  S
Zr561      O1448   2.403       .  S
Zr561      O2351   2.409   1_455  S
Zr561      O2353   2.382   1_455  S
O562      Zr1441   2.435       .  S
O562        H605   0.989       .  S
O563      Zr2321   2.438       .  S
O563        H604   0.990       .  S
O563       H2368   0.990       .  S
Zr564       O565   2.441       .  S
Zr564       O566   2.438       .  S
Zr564       O568   2.345       .  S
Zr564       O567   2.391       .  S
Zr564       O592   2.366       .  S
Zr564       O594   2.372   1_455  S
O565        H606   0.990       .  S
O565        H609   0.989       .  S
O566        H599   0.990       .  S
O567      Zr1441   2.335       .  S
O567      Zr1467   2.377   1_545  S
O568      Zr1441   2.397       .  S
O568      Zr2348   2.409   1_455  S
O568        H595   0.966       .  S
O569       Zr581   2.413       .  S
O569        C571   1.282       .  A
O570      Zr1468   2.464       .  S
O570        C571   1.291       .  A
C571        C699   1.505       .  S
O572       Zr584   2.432   1_565  S
O572       C1454   1.272       .  A
O573       Zr587   2.399   1_655  S
O573       C2334   1.265       .  A
C574       O1452   1.274       .  A
C574       O2333   1.264       .  A
C574       C1378   1.416       .  S
O575       Zr584   2.462       .  S
O575        C577   1.291       .  A
O576       Zr588   2.392       .  S
O576        C577   1.280       .  A
C577        C769   1.493       .  S
O578       Zr581   2.437       .  S
O578        C580   1.286       .  A
O579      Zr2347   2.441       .  S
O579        C580   1.289       .  A
C580        C786   1.486       .  S
Zr581       O582   2.436       .  S
Zr581       O583   2.434       .  S
Zr581       O589   2.407       .  S
Zr581       O590   2.309       .  S
Zr581       O593   2.393       .  S
Zr581       O591   2.327       .  S
O582        H602   0.990       .  S
O582        H607   0.990       .  S
O583        H603   0.990       .  S
Zr584      O1465   2.432   1_545  S
Zr584      O2346   2.438       .  S
Zr584      O1470   2.375   1_545  S
Zr584      O1469   2.362   1_545  S
Zr584      O2354   2.361       .  S
Zr584      O2352   2.405       .  S
O585      Zr1464   2.434       .  S
O585        H601   0.990       .  S
O586      Zr2344   2.439       .  S
O586        H600   0.990       .  S
O586       H2370   0.990       .  S
Zr587      O1436   2.465       .  S
Zr587      O2339   2.437   1_455  S
Zr587      O1447   2.378       .  S
Zr587      O2350   2.382   1_455  S
Zr587      O1472   2.449       .  S
Zr587      O2353   2.381   1_455  S
Zr588      O2313   2.415       .  S
Zr588      O1450   2.468       .  S
Zr588      O2328   2.410       .  S
Zr588      O1469   2.380   1_545  S
Zr588      O1471   2.398   1_545  S
Zr588      O2354   2.376       .  S
O589      Zr1464   2.358       .  S
O589      Zr1468   2.380       .  S
O589        H597   0.964       .  S
O590      Zr1464   2.373       .  S
O590      Zr2347   2.376       .  S
O591      Zr2321   2.405       .  S
O591      Zr1468   2.396       .  S
O592      Zr2344   2.405   1_455  S
O592      Zr1467   2.450   1_545  S
O592        H596   0.961       .  S
O593      Zr2321   2.380       .  S
O593      Zr2347   2.376       .  S
O593        H598   0.966       .  S
O594      Zr2344   2.359       .  S
O594      Zr2348   2.374       .  S
H608       O2323   0.990       .  S
H610       O2346   0.990       .  S
C611        C613   1.563       .  S
C611        C615   1.531       .  S
C611        C614   1.566       .  S
C611        C660   1.603       .  S
C612        C616   1.545       .  S
C612        C618   1.529       .  S
C612        C617   1.554       .  S
C612        C671   1.602       .  S
C613        C621   1.385       .  A
C613        C616   1.412       .  A
C614        C625   1.390       .  A
C614        C617   1.417       .  A
C615        C629   1.376       .  A
C615        C618   1.398       .  A
C616        C619   1.373       .  A
C617        C623   1.380       .  A
C618        C626   1.369       .  A
C619        N620   1.359       .  A
C619        H632   1.082       .  S
N620        C621   1.365       .  A
N620        C758   1.454       .  S
C621        H622   1.081       .  S
C623        N624   1.355       .  A
C623        H633   1.081       .  S
N624        C625   1.359       .  A
N624        C730   1.446       .  S
C625        H631   1.082       .  S
C626        N627   1.352       .  A
C626        H628   1.083       .  S
N627        C629   1.354       .  A
N627        C741   1.427       .  S
C629        H630   1.082       .  S
C634        C636   1.554       .  S
C634        C638   1.541       .  S
C634        C637   1.562       .  S
C634        C674   1.595       .  S
C635        C639   1.558       .  S
C635        C641   1.540       .  S
C635        C640   1.543       .  S
C635        C657   1.601       .  S
C636        C644   1.384       .  A
C636        C639   1.413       .  A
C637        C648   1.394       .  A
C637        C640   1.405       .  A
C638        C652   1.380       .  A
C638        C641   1.404       .  A
C639        C642   1.383       .  A
C640        C646   1.368       .  A
C641        C649   1.377       .  A
C642        N643   1.359       .  A
C642        H655   1.081       .  S
N643        C644   1.358       .  A
N643        C716   1.449       .  S
C644        H645   1.082       .  S
C646        N647   1.355       .  A
C646        H656   1.081       .  S
N647        C648   1.368       .  A
N647        C688   1.456       .  S
C648        H654   1.081       .  S
C649        N650   1.359       .  A
C649        H651   1.082       .  S
N650        C652   1.357       .  A
N650        C702   1.441       .  S
C652        H653   1.082       .  S
C657        C658   1.427       .  A
C657        C662   1.423       .  A
C658        C659   1.436       .  A
C658        C663   1.452       .  S
C659        C660   1.431       .  A
C659        C666   1.449       .  S
C660        C661   1.433       .  A
C661        C662   1.440       .  A
C661        C664   1.449       .  S
C662        C665   1.449       .  S
C663        N670   1.158       .  T
C664        N669   1.158       .  T
C665        N667   1.158       .  T
C666        N668   1.157       .  T
C671        C672   1.431       .  A
C671        C676   1.431       .  A
C672        C673   1.440   1_556  A
C672        C677   1.447       .  S
C673        C680   1.449       .  S
C675        C676   1.436   1_554  A
C676        C679   1.451       .  S
C677        N684   1.157       .  T
C678        N683   1.156       .  T
C679        N681   1.158       .  T
C680        N682   1.157       .  T
C685        C686   1.411       .  A
C685        C690   1.408       .  A
C686        C687   1.414       .  A
C686        C691   1.450       .  S
C687        C688   1.417       .  A
C687        C694   1.447       .  S
C688        C689   1.419       .  A
C689        C690   1.412       .  A
C689        C692   1.450       .  S
C690        C693   1.451       .  S
C691        N698   1.156       .  T
C692        N697   1.157       .  T
C693        N695   1.157       .  T
C694        N696   1.157       .  T
C699        C700   1.420       .  A
C699        C704   1.423       .  A
C700        C701   1.415       .  A
C700        C705   1.447       .  S
C701        C702   1.407       .  A
C701        C708   1.449       .  S
C702        C703   1.404       .  A
C703        C704   1.410       .  A
C703        C706   1.449       .  S
C704        C707   1.449       .  S
C705        N712   1.157       .  T
C706        N711   1.157       .  T
C707        N709   1.156       .  T
C708        N710   1.157       .  T
C713        C714   1.426       .  A
C713        C718   1.418       .  A
C714        C715   1.413       .  A
C714        C719   1.450       .  S
C715        C716   1.408       .  A
C715        C722   1.451       .  S
C716        C717   1.413       .  A
C717        C718   1.415       .  A
C717        C720   1.446       .  S
C718        C721   1.452       .  S
C719       N2486   1.157       .  T
C720        N725   1.156       .  T
C721       N1603   1.158       .  T
C722        N724   1.157       .  T
N723       C1601   1.157   1_545  T
N726       C2479   1.158       .  T
C727        C728   1.427       .  A
C727        C732   1.426       .  A
C728        C729   1.412       .  A
C728        C733   1.452       .  S
C729        C730   1.405       .  A
C729        C736   1.451       .  S
C730        C731   1.406       .  A
C731        C732   1.421       .  A
C731        C734   1.448       .  S
C732        C735   1.449       .  S
C733        N740   1.157       .  T
C734        N739   1.157       .  T
C735       N2497   1.157   1_455  T
C736        N738   1.157       .  T
N737       C2495   1.158       .  T
C741        C742   1.401       .  A
C741        C746   1.404       .  A
C742        C743   1.403       .  A
C742        C747   1.451       .  S
C743        C744   1.419       .  A
C743        C750   1.449       .  S
C744        C745   1.418       .  A
C745        C746   1.408       .  A
C745       C1628   1.449       .  S
C746        C749   1.449       .  S
C747        N754   1.157       .  T
C748       C1625   1.450   1_545  S
C748        N753   1.157       .  T
C749       N1631   1.157       .  T
C750        N752   1.156       .  T
N751       C1629   1.157       .  T
C755        C756   1.418       .  A
C755        C760   1.416       .  A
C756        C757   1.410       .  A
C756        C761   1.452       .  S
C757        C758   1.417       .  A
C757        C764   1.450       .  S
C758        C759   1.415       .  A
C759        C760   1.417       .  A
C759        C762   1.449       .  S
C760        C763   1.450       .  S
C761        N768   1.157       .  T
C762        N767   1.157       .  T
C763       N2525   1.157   1_455  T
C764        N766   1.157       .  T
N765       C2523   1.157       .  T
C769        C770   1.418       .  A
C769        C774   1.421       .  A
C770        C771   1.415       .  A
C770        C775   1.451       .  S
C771        C772   1.410       .  A
C771        C778   1.448       .  S
C772        C773   1.399       .  A
C773        C774   1.401       .  A
C773        C776   1.448       .  S
C774        C777   1.447       .  S
C775       N1662   1.158   1_545  T
C776        N781   1.157       .  T
C777       N2539   1.156       .  T
C778        N780   1.157       .  T
N779       C2537   1.156       .  T
N782       C1655   1.157       .  T
C783        C784   1.411       .  A
C783        C788   1.415       .  A
C784        C785   1.414       .  A
C784        C789   1.447       .  S
C785        C786   1.412       .  A
C785        C792   1.449       .  S
C786        C787   1.408       .  A
C787        C788   1.413       .  A
C787        C790   1.450       .  S
C788        C791   1.448       .  S
C789        N796   1.157       .  T
C790        N795   1.157       .  T
C791        N793   1.157       .  T
C792        N794   1.156       .  T
C797        C798   1.404       .  A
C797        C802   1.407       .  A
C798        C799   1.411       .  A
C798        C803   1.450       .  S
C799        C800   1.426       .  A
C799        C806   1.450       .  S
C800        C801   1.423       .  A
C801        C802   1.420       .  A
C801        C804   1.446   1_545  S
C802        C805   1.449       .  S
C803        N810   1.157       .  T
C804        N809   1.156       .  T
C805        N807   1.157       .  T
C806        N808   1.156       .  T
C811        C812   1.415       .  A
C811        C816   1.410       .  A
C813        C820   1.448       .  S
C814        C815   1.411       .  A
C815        C816   1.411       .  A
C815        C818   1.448       .  S
C816        C819   1.451       .  S
C817       N1704   1.157   1_545  T
C818        N823   1.157       .  T
C819        N821   1.157       .  T
C820        N822   1.157       .  T
N824       C1697   1.157       .  T
C825        C830   1.399       .  A
C826        C831   1.450       .  S
C827        C828   1.427   1_554  A
C828        C829   1.431       .  A
C829        C830   1.407   1_556  A
C829        C832   1.453       .  S
C830        C833   1.450       .  S
C831        N838   1.157       .  T
C832        N837   1.158       .  T
C833        N835   1.157       .  T
C834       N2596   1.158       .  T
N836       C2594   1.158   1_455  T
C839        C840   1.410       .  A
C840        C841   1.409       .  A
C840        C845   1.451       .  S
C841        C842   1.414       .  A
C841        C848   1.450       .  S
C843        C844   1.406       .  A
C843        C846   1.448       .  S
C844        C847   1.445       .  S
C845        N852   1.157       .  T
C846        N851   1.157       .  T
C847        N849   1.155       .  T
C848        N850   1.157       .  T
C853        C854   1.409       .  A
C853        C858   1.435       .  A
C854        C855   1.410       .  A
C854        C859   1.443       .  S
C855        C856   1.417       .  A
C855        C862   1.443       .  S
C856        C857   1.429       .  A
C857        C858   1.448       .  A
C857        C860   1.445       .  S
C858        C861   1.446       .  S
C859        N866   1.158       .  T
C860        N865   1.156       .  T
C861        N863   1.157       .  T
C862        N864   1.157       .  T
C867        C868   1.431       .  A
C867        C872   1.432       .  A
C868        C869   1.440       .  A
C868        C873   1.449       .  S
C869        C870   1.428       .  A
C869        C876   1.450       .  S
C870        C871   1.422       .  A
C871        C872   1.434       .  A
C871        C874   1.451       .  S
C872        C875   1.445       .  S
C873        N880   1.158       .  T
C874        N879   1.157       .  T
C875        N877   1.155       .  T
C876        N878   1.158       .  T
C881        C883   1.549       .  S
C881        C885   1.539       .  S
C881        C884   1.546       .  S
C881       C1310   1.593       .  S
C882        C886   1.566       .  S
C882        C888   1.539       .  S
C882        C887   1.539       .  S
C882       C1293   1.591       .  S
C883        C891   1.380       .  A
C883       C1326   1.416   1_554  A
C884        C895   1.381       .  A
C884       C1327   1.408   1_554  A
C885        C899   1.378       .  A
C885       C1328   1.405   1_554  A
C886       C1323   1.413       .  A
C886        C889   1.388       .  A
C887       C1324   1.410       .  A
C887        C893   1.371       .  A
C888       C1325   1.404       .  A
C888        C896   1.376       .  A
C889        N890   1.356       .  A
C889        H902   1.077       .  S
N890       C1331   1.354       .  A
N890       C1254   1.443       .  S
C891       N1330   1.353   1_554  A
C891        H892   1.082       .  S
C893       N1334   1.355       .  A
C893        H903   1.082       .  S
N894       C1333   1.357       .  A
N894        C895   1.358   1_556  A
N894       C1722   1.443       .  S
C895        H901   1.082       .  S
C896       N1337   1.358       .  A
C896        H898   1.082       .  S
N897       C1336   1.359   1_554  A
N897        C899   1.356       .  A
N897       C1705   1.437       .  S
C899        H900   1.082       .  S
C904        C906   1.548       .  S
C904        C908   1.553       .  S
C904        C907   1.532       .  S
C904       C1307   1.603       .  S
C905        C909   1.560       .  S
C905        C911   1.552       .  S
C905        C910   1.551       .  S
C905       C1296   1.596       .  S
C906        C914   1.381       .  A
C906        C909   1.410       .  A
C907        C918   1.367       .  A
C907        C910   1.404       .  A
C908        C922   1.380       .  A
C908        C911   1.414       .  A
C909        C912   1.385       .  A
C910        C916   1.389       .  A
C911        C919   1.382       .  A
C912        N913   1.350       .  A
C912        H925   1.079       .  S
N913        C914   1.353       .  A
N913       C1212   1.436       .  S
C914        H915   1.082       .  S
C916        N917   1.364       .  A
C916        H926   1.082       .  S
N917        C918   1.352       .  A
N917       C1223   1.441       .  S
C918        H924   1.083       .  S
C919        N920   1.359       .  A
C919        H921   1.082       .  S
N920        C922   1.359       .  A
N920       C1237   1.443       .  S
C922        H923   1.082       .  S
O927       Zr939   2.458       .  S
O927        C929   1.290       .  A
O928       Zr965   2.412       .  S
O928        C929   1.283       .  A
C929       C1195   1.503       .  S
O930       Zr942   2.439       .  S
O930        C932   1.288       .  A
O931      Zr2726   2.448   1_455  S
O931        C932   1.292       .  A
C932       C1167   1.511       .  S
O933       Zr942   2.425       .  S
O933        C935   1.284       .  A
O934        C935   1.288       .  A
C935       C1279   1.476       .  S
O936       Zr939   2.373       .  S
O936       C1818   1.267   1_455  A
O937       Zr966   2.392       .  S
O937        C938   1.268       .  A
C938       O1816   1.265       .  A
Zr939      O2701   2.433   1_455  S
Zr939      O2729   2.371   1_455  S
Zr939      O2731   2.348   1_455  S
O940        H983   0.990       .  S
O941      Zr2699   2.434       .  S
O941        H982   0.989       .  S
O941       H2746   0.990       .  S
Zr942       O943   2.438       .  S
Zr942       O944   2.435       .  S
Zr942       O946   2.348       .  S
Zr942       O945   2.387       .  S
Zr942       O970   2.354       .  S
Zr942       O972   2.380       .  S
O943        H984   0.990       .  S
O943        H987   0.990       .  S
O944        H977   0.990       .  S
O946      Zr2726   2.418   1_455  S
O946        H973   0.967       .  S
O947       Zr959   2.435       .  S
O947        C949   1.288       .  A
O948        C949   1.286       .  A
C949       C1184   1.485       .  S
O950      Zr1402   2.398   1_554  S
O951      Zr1405   2.366   1_554  S
O951       C2712   1.260   1_465  A
C952       O2711   1.259   1_545  A
O953       Zr962   2.447       .  S
O953        C955   1.286       .  A
O954       Zr966   2.439       .  S
O954        C955   1.287       .  A
C955       C1251   1.484       .  S
O956       Zr959   2.433       .  S
O956        C958   1.284       .  A
O957      Zr2725   2.438       .  S
O957        C958   1.287       .  A
C958       C1268   1.515       .  S
Zr959       O960   2.436       .  S
Zr959       O961   2.429       .  S
Zr959       O967   2.384   1_565  S
Zr959       O968   2.337       .  S
Zr959       O971   2.382       .  S
Zr959       O969   2.331       .  S
O960        H980   0.990       .  S
O960        H985   0.990       .  S
O961        H981   0.990       .  S
Zr962      O1390   2.397       .  S
Zr962      O3164   2.438       .  S
Zr962      O2732   2.355       .  S
Zr962      O2730   2.393       .  S
O963        H979   0.990       .  S
O964      Zr3162   2.433   1_454  S
O964        H978   0.989   1_554  S
O964       H2748   0.990       .  S
Zr965      O1391   2.363       .  S
Zr965      O2717   2.442   1_455  S
Zr965      O2728   2.408   1_455  S
Zr965      O2731   2.361   1_455  S
Zr966      O2691   2.456       .  S
Zr966      O2706   2.422       .  S
Zr966      O2732   2.366       .  S
O967        H975   0.964       .  S
O968      Zr2725   2.411       .  S
O969      Zr2699   2.372       .  S
O970      Zr2722   2.398   1_455  S
O970       H1414   0.964       .  S
O971      Zr2699   2.348       .  S
O971      Zr2725   2.358       .  S
O971        H976   0.965       .  S
O972      Zr2722   2.351   1_455  S
O972      Zr2726   2.367   1_455  S
H974       O1410   0.963       .  S
H986       O2701   0.990       .  S
H988       O2724   0.990       .  S
O989      Zr1001   2.458   1_565  S
O989        C991   1.289       .  A
O990      Zr1027   2.417       .  S
O990        C991   1.282       .  A
C991       C1153   1.507       .  S
O992      Zr1004   2.458       .  S
O992        C994   1.289       .  A
O993      Zr2788   2.420   1_455  S
O993        C994   1.285       .  A
C994       C1125   1.486       .  S
O995      Zr1004   2.429       .  S
O995        C997   1.285       .  A
O996        C997   1.293       .  A
C997       C1240   1.513       .  S
O998      Zr1001   2.419       .  S
O998       C1880   1.268       .  A
O999      Zr1028   2.383       .  S
O999       C1000   1.266       .  A
C1000      O1878   1.269       .  A
Zr1001     O2763   2.435   1_545  S
Zr1001     O2791   2.402   1_445  S
Zr1001     O2793   2.381   1_445  S
O1002      H1045   0.990       .  S
O1003     Zr2761   2.436   1_565  S
O1003      H1044   0.990       .  S
O1003      H2808   0.990       .  S
Zr1004     O1005   2.445       .  S
Zr1004     O1006   2.436       .  S
Zr1004     O1008   2.345       .  S
Zr1004     O1007   2.388       .  S
Zr1004     O1032   2.369       .  S
Zr1004     O1034   2.379   1_455  S
O1005      H1046   0.990       .  S
O1005      H1049   0.990       .  S
O1006      H1039   0.990       .  S
O1008     Zr2788   2.407   1_455  S
O1008      H1035   0.966       .  S
O1009     Zr1021   2.405       .  S
O1009      C1011   1.279       .  A
O1010      C1011   1.292   1_545  A
C1011      C1139   1.512       .  S
O1012     Zr1024   2.423       .  S
O1013     Zr1027   2.401   1_655  S
O1013      C2774   1.265       .  A
C1014      O2773   1.265       .  A
O1015     Zr1024   2.479       .  S
O1015      C1017   1.293       .  A
O1016     Zr1028   2.390       .  S
O1016      C1017   1.279       .  A
C1017      C1209   1.499       .  S
O1018     Zr1021   2.425       .  S
O1018      C1020   1.283       .  A
O1019     Zr2787   2.434       .  S
O1019      C1020   1.287       .  A
C1020      C1226   1.477       .  S
Zr1021     O1022   2.438       .  S
Zr1021     O1023   2.436       .  S
Zr1021     O1029   2.406       .  S
Zr1021     O1030   2.311       .  S
Zr1021     O1033   2.389       .  S
Zr1021     O1031   2.325       .  S
O1022      H1042   0.990       .  S
O1022      H1047   0.989       .  S
O1023      H1043   0.990       .  S
Zr1024     O2786   2.439       .  S
Zr1024     O2794   2.361       .  S
Zr1024     O2792   2.407       .  S
O1025      H1041   0.990       .  S
O1026     Zr2784   2.438       .  S
O1026      H1040   0.990       .  S
O1026      H2810   0.990       .  S
Zr1027     O2779   2.436   1_455  S
Zr1027     O2790   2.383   1_455  S
Zr1027     O2793   2.379   1_455  S
Zr1028     O2753   2.421       .  S
Zr1028     O2768   2.411       .  S
Zr1028     O2794   2.374       .  S
O1029      H1037   0.965       .  S
O1030     Zr2787   2.373       .  S
O1031     Zr2761   2.403   1_565  S
O1032     Zr2784   2.407   1_455  S
O1032      H1036   0.961       .  S
O1033     Zr2761   2.380   1_565  S
O1033     Zr2787   2.378       .  S
O1033      H1038   0.966       .  S
O1034     Zr2784   2.359       .  S
O1034     Zr2788   2.372       .  S
H1048      O2763   0.989       .  S
H1050      O2786   0.990       .  S
C1051      C1053   1.557       .  S
C1051      C1055   1.527       .  S
C1051      C1054   1.565       .  S
C1051      C1100   1.606       .  S
C1052      C1056   1.550       .  S
C1052      C1058   1.534       .  S
C1052      C1057   1.554       .  S
C1052      C1111   1.608       .  S
C1053      C1061   1.381       .  A
C1053      C1056   1.411       .  A
C1054      C1065   1.387       .  A
C1054      C1057   1.420       .  A
C1055      C1069   1.373       .  A
C1055      C1058   1.400       .  A
C1056      C1059   1.378       .  A
C1057      C1063   1.379       .  A
C1058      C1066   1.370       .  A
C1059      N1060   1.362       .  A
C1059      H1072   1.082       .  S
N1060      C1061   1.364       .  A
N1060      C1198   1.458       .  S
C1061      H1062   1.080       .  S
C1063      N1064   1.357       .  A
C1063      H1073   1.081       .  S
N1064      C1065   1.358       .  A
N1064      C1170   1.443       .  S
C1065      H1071   1.082       .  S
C1066      N1067   1.354       .  A
C1066      H1068   1.083       .  S
N1067      C1069   1.352       .  A
N1067      C1181   1.426       .  S
C1069      H1070   1.082       .  S
C1074      C1076   1.554       .  S
C1074      C1078   1.544       .  S
C1074      C1077   1.560       .  S
C1074      C1114   1.598       .  S
C1075      C1079   1.559       .  S
C1075      C1081   1.538       .  S
C1075      C1080   1.542       .  S
C1075      C1097   1.600       .  S
C1076      C1084   1.383       .  A
C1076      C1079   1.414       .  A
C1077      C1088   1.390       .  A
C1077      C1080   1.403       .  A
C1078      C1092   1.381       .  A
C1078      C1081   1.404       .  A
C1079      C1082   1.381       .  A
C1080      C1086   1.370       .  A
C1081      C1089   1.377       .  A
C1082      N1083   1.360       .  A
C1082      H1095   1.081       .  S
N1083      C1084   1.358       .  A
N1083      C1156   1.450       .  S
C1084      H1085   1.082       .  S
C1086      N1087   1.355       .  A
C1086      H1096   1.080       .  S
N1087      C1088   1.370       .  A
N1087      C1128   1.459       .  S
C1088      H1094   1.080       .  S
C1089      N1090   1.359       .  A
C1089      H1091   1.082       .  S
N1090      C1092   1.358       .  A
N1090      C1142   1.441       .  S
C1092      H1093   1.082       .  S
C1097      C1098   1.426       .  A
C1097      C1102   1.420       .  A
C1098      C1099   1.436       .  A
C1098      C1103   1.452       .  S
C1099      C1100   1.431       .  A
C1099      C1106   1.449       .  S
C1100      C1101   1.436       .  A
C1101      C1102   1.441       .  A
C1101      C1104   1.449       .  S
C1102      C1105   1.449       .  S
C1103      N1110   1.158       .  T
C1104      N1109   1.158       .  T
C1105      N1107   1.158       .  T
C1106      N1108   1.157       .  T
C1111      C1112   1.433       .  A
C1111      C1116   1.430       .  A
C1112      C1113   1.443       .  A
C1112      C1117   1.446       .  S
C1113      C1554   1.423       .  A
C1113      C1120   1.449       .  S
C1114      C1553   1.426       .  A
C1114      C1555   1.424       .  A
C1115      C1554   1.424       .  A
C1115      C1116   1.438       .  A
C1115      C1558   1.447       .  S
C1116      C1119   1.450       .  S
C1117      N1124   1.157       .  T
C1118      C1555   1.448       .  S
C1118      N1123   1.157       .  T
C1119      N1121   1.158       .  T
C1120      N1122   1.157       .  T
C1125      C1126   1.410       .  A
C1125      C1130   1.408       .  A
C1126      C1127   1.412       .  A
C1126      C1131   1.449       .  S
C1127      C1128   1.418       .  A
C1127      C1134   1.447       .  S
C1128      C1129   1.425       .  A
C1129      C1130   1.414       .  A
C1129      C1132   1.450       .  S
C1130      C1133   1.452       .  S
C1131      N1138   1.155       .  T
C1132      N1137   1.158       .  T
C1133      N1135   1.158       .  T
C1134      N1136   1.157       .  T
C1139      C1140   1.424       .  A
C1139      C1144   1.431       .  A
C1140      C1141   1.416       .  A
C1140      C1145   1.449   1_565  S
C1141      C1142   1.406       .  A
C1141      C1148   1.449       .  S
C1142      C1143   1.401       .  A
C1143      C1144   1.411       .  A
C1143      C1146   1.451       .  S
C1144      C1147   1.451       .  S
C1145      N1152   1.157       .  T
C1146      N1151   1.157       .  T
C1147      N1149   1.157       .  T
C1148      N1150   1.157       .  T
C1153      C1154   1.424       .  A
C1153      C1158   1.420       .  A
C1154      C1155   1.414       .  A
C1154      C1159   1.450       .  S
C1155      C1156   1.410       .  A
C1155      C1162   1.451       .  S
C1156      C1157   1.413       .  A
C1157      C1158   1.414       .  A
C1157      C1160   1.447       .  S
C1158      C1161   1.454       .  S
C1159      N2926   1.157       .  T
C1160      N1165   1.156       .  T
C1162      N1164   1.157       .  T
N1166      C2919   1.158       .  T
C1167      C1168   1.426       .  A
C1167      C1172   1.425       .  A
C1168      C1169   1.410       .  A
C1168      C1173   1.452       .  S
C1169      C1170   1.404       .  A
C1169      C1176   1.450       .  S
C1170      C1171   1.405       .  A
C1171      C1172   1.419       .  A
C1171      C1174   1.448       .  S
C1172      C1175   1.450       .  S
C1173      N1180   1.157       .  T
C1174      N1179   1.157       .  T
C1175      N2937   1.157   1_455  T
C1176      N1178   1.157       .  T
N1177      C2935   1.157       .  T
C1181      C1182   1.400       .  A
C1181      C1186   1.403       .  A
C1182      C1183   1.403       .  A
C1182      C1187   1.450       .  S
C1183      C1184   1.419       .  A
C1183      C1190   1.449       .  S
C1184      C1185   1.418       .  A
C1185      C1186   1.408       .  A
C1186      C1189   1.449       .  S
C1187      N1194   1.157       .  T
C1188      N1193   1.157       .  T
C1190      N1192   1.157       .  T
C1195      C1196   1.418       .  A
C1195      C1200   1.417       .  A
C1196      C1197   1.412       .  A
C1196      C1201   1.453       .  S
C1197      C1198   1.419       .  A
C1197      C1204   1.449       .  S
C1198      C1199   1.418       .  A
C1199      C1200   1.416       .  A
C1199      C1202   1.451       .  S
C1200      C1203   1.450       .  S
C1201      N1208   1.157       .  T
C1202      N1207   1.158       .  T
C1203      N2965   1.157       .  T
C1204      N1206   1.157       .  T
N1205      C2963   1.157       .  T
C1209      C1210   1.418       .  A
C1209      C1214   1.422       .  A
C1210      C1211   1.417       .  A
C1210      C1215   1.449       .  S
C1211      C1212   1.409       .  A
C1211      C1218   1.448       .  S
C1212      C1213   1.398       .  A
C1213      C1214   1.403       .  A
C1213      C1216   1.449       .  S
C1214      C1217   1.447       .  S
C1216      N1221   1.157       .  T
C1217      N2979   1.156       .  T
C1218      N1220   1.157       .  T
N1219      C2977   1.155       .  T
C1223      C1224   1.410       .  A
C1223      C1228   1.413       .  A
C1224      C1225   1.411       .  A
C1224      C1229   1.447       .  S
C1225      C1226   1.412       .  A
C1225      C1232   1.451       .  S
C1226      C1227   1.407       .  A
C1227      C1228   1.409       .  A
C1227      C1230   1.450       .  S
C1228      C1231   1.448       .  S
C1229      N1236   1.157       .  T
C1230      N1235   1.157       .  T
C1231      N1233   1.157       .  T
C1232      N1234   1.157       .  T
C1237      C1238   1.402       .  A
C1237      C1242   1.406       .  A
C1238      C1239   1.411       .  A
C1238      C1243   1.450       .  S
C1239      C1240   1.428       .  A
C1239      C1246   1.451       .  S
C1240      C1241   1.424       .  A
C1241      C1242   1.420       .  A
C1241      C1244   1.446       .  S
C1242      C1245   1.449       .  S
C1243      N1250   1.157       .  T
C1244      N1249   1.156       .  T
C1245      N1247   1.157       .  T
C1246      N1248   1.157       .  T
C1251      C1252   1.416       .  A
C1251      C1256   1.410       .  A
C1252      C1693   1.415       .  A
C1252      C1697   1.451       .  S
C1253      C1692   1.414       .  A
C1253      C1694   1.407       .  A
C1253      C1260   1.448       .  S
C1254      C1693   1.408       .  A
C1254      C1255   1.412       .  A
C1255      C1256   1.411       .  A
C1255      C1258   1.449       .  S
C1256      C1259   1.450       .  S
C1257      C1692   1.451       .  S
C1258      N1263   1.157       .  T
C1259      N1261   1.157       .  T
C1260      N1262   1.157       .  T
C1265      C1706   1.401       .  A
C1265      C1270   1.399       .  A
C1265      N1337   1.437       .  S
C1266      C1705   1.403       .  A
C1266      C1707   1.415       .  A
C1266      C1271   1.450       .  S
C1267      C1706   1.415       .  A
C1267      C1268   1.430       .  A
C1267      C1714   1.450       .  S
C1268      C1269   1.432       .  A
C1269      C1270   1.408       .  A
C1269      C1272   1.452       .  S
C1270      C1273   1.450       .  S
C1271      N1278   1.157       .  T
C1272      N1277   1.158       .  T
C1273      N1275   1.157       .  T
C1274      C1707   1.450       .  S
C1274      N3036   1.157       .  T
N1276      C3034   1.157   1_455  T
C1279      C1280   1.411       .  A
C1279      C1724   1.407       .  A
C1280      C1281   1.412       .  A
C1280      C1285   1.451       .  S
C1281      C1282   1.415       .  A
C1281      C1288   1.450       .  S
C1282      C1723   1.411       .  A
C1282      N1334   1.445       .  S
C1283      C1722   1.412   1_554  A
C1283      C1284   1.407       .  A
C1283      C1286   1.448       .  S
C1284      C1719   1.408   1_554  A
C1284      C1287   1.446       .  S
C1285      N1292   1.157       .  T
C1286      N1291   1.157       .  T
C1287      N1289   1.155       .  T
C1288      N1290   1.157       .  T
C1293      C1294   1.407       .  A
C1293      C1298   1.433       .  A
C1294      C1295   1.407       .  A
C1294      C1299   1.442       .  S
C1295      C1296   1.417       .  A
C1295      C1302   1.443       .  S
C1296      C1297   1.430       .  A
C1297      C1298   1.445       .  A
C1297      C1300   1.445       .  S
C1298      C1301   1.446       .  S
C1299      N1306   1.157       .  T
C1300      N1305   1.156       .  T
C1301      N1303   1.157       .  T
C1302      N1304   1.157       .  T
C1307      C1308   1.431       .  A
C1307      C1312   1.434       .  A
C1308      C1309   1.439       .  A
C1308      C1313   1.449       .  S
C1309      C1310   1.426       .  A
C1309      C1316   1.449       .  S
C1310      C1311   1.420       .  A
C1311      C1312   1.434       .  A
C1311      C1314   1.452       .  S
C1312      C1315   1.445       .  S
C1313      N1320   1.158       .  T
C1314      N1319   1.158       .  T
C1315      N1317   1.155       .  T
C1316      N1318   1.157       .  T
C1321      C1323   1.549       .  S
C1321      C1325   1.539       .  S
C1321      C1324   1.548       .  S
C1321      C1750   1.592       .  S
C1322      C1326   1.564       .  S
C1322      C1328   1.540       .  S
C1322      C1327   1.540       .  S
C1322      C1733   1.597       .  S
C1323      C1331   1.382       .  A
C1324      C1335   1.382       .  A
C1325      C1339   1.379       .  A
C1326      C1329   1.386       .  A
C1327      C1333   1.369       .  A
C1328      C1336   1.375       .  A
C1329      N1330   1.356       .  A
C1329      H1342   1.078       .  S
N1330      C1694   1.440       .  S
C1331      H1332   1.082       .  S
C1333      H1343   1.082       .  S
N1334      C1335   1.359       .  A
C1335      H1341   1.082       .  S
C1336      H1338   1.082       .  S
N1337      C1339   1.356       .  A
C1339      H1340   1.082       .  S
C1344      C1346   1.542       .  S
C1344      C1348   1.553       .  S
C1344      C1347   1.533       .  S
C1344      C1747   1.606       .  S
C1345      C1349   1.559       .  S
C1345      C1351   1.553       .  S
C1345      C1350   1.555       .  S
C1345      C1736   1.603       .  S
C1346      C1354   1.377       .  A
C1346      C1349   1.411       .  A
C1347      C1358   1.366       .  A
C1347      C1350   1.407       .  A
C1348      C1362   1.381       .  A
C1348      C1351   1.415       .  A
C1349      C1352   1.383       .  A
C1350      C1356   1.391       .  A
C1351      C1359   1.381       .  A
C1352      N1353   1.349       .  A
C1352      H1365   1.079       .  S
N1353      C1354   1.351       .  A
N1353      C1652   1.430       .  S
C1354      H1355   1.082       .  S
C1356      N1357   1.366       .  A
C1356      H1366   1.082       .  S
N1357      C1358   1.352       .  A
N1357      C1663   1.443       .  S
C1358      H1364   1.083       .  S
C1359      N1360   1.359       .  A
C1359      H1361   1.082       .  S
N1360      C1362   1.359       .  A
N1360      C1677   1.444       .  S
C1362      H1363   1.082       .  S
O1367     Zr1379   2.468       .  S
O1367      C1369   1.291       .  A
O1368     Zr1405   2.418       .  S
O1368      C1369   1.284       .  A
C1369      C1635   1.508       .  S
O1370     Zr1382   2.440       .  S
O1370      C1372   1.287       .  A
O1371     Zr3166   2.454   1_455  S
O1371      C1372   1.293       .  A
C1372      C1607   1.514       .  S
O1373     Zr1382   2.425       .  S
O1373      C1375   1.284       .  A
O1374      C1375   1.288       .  A
C1375      C1719   1.473       .  S
O1376     Zr1379   2.376   1_655  S
O1376      C2258   1.267       .  A
O1377     Zr1406   2.374       .  S
O1377      C1378   1.266       .  A
C1378      O2256   1.269       .  A
Zr1379     O3141   2.432   1_455  S
Zr1379     O3169   2.379   1_455  S
Zr1379     O3171   2.356   1_455  S
O1380      H1423   0.989       .  S
O1381     Zr3139   2.434       .  S
O1381      H1422   0.990       .  S
O1381      H3186   0.990       .  S
Zr1382     O1383   2.437       .  S
Zr1382     O1384   2.435       .  S
Zr1382     O1386   2.350       .  S
Zr1382     O1385   2.390       .  S
Zr1382     O1410   2.351       .  S
Zr1382     O1412   2.377       .  S
O1383      H1424   0.989       .  S
O1383      H1427   0.989       .  S
O1384      H1417   0.990       .  S
O1386     Zr3166   2.420   1_455  S
O1386      H1413   0.967       .  S
O1387     Zr1399   2.431       .  S
O1387      C1389   1.287       .  A
O1388      C1389   1.285       .  A
C1389      C1624   1.484       .  S
O1391      C3152   1.260   1_465  A
C1392      O3151   1.259   1_545  A
O1393     Zr1402   2.449       .  S
O1393      C1395   1.286       .  A
O1394     Zr1406   2.439       .  S
O1394      C1395   1.287       .  A
C1395      C1691   1.484       .  S
O1396     Zr1399   2.437       .  S
O1396      C1398   1.286       .  A
O1397     Zr3165   2.433       .  S
O1397      C1398   1.286       .  A
C1398      C1708   1.511       .  S
Zr1399     O1400   2.436       .  S
Zr1399     O1401   2.430       .  S
Zr1399     O1407   2.378   1_565  S
Zr1399     O1408   2.333       .  S
Zr1399     O1411   2.383       .  S
Zr1399     O1409   2.339       .  S
O1400      H1420   0.990   1_556  S
O1400      H1425   0.990       .  S
O1401      H1421   0.990       .  S
Zr1402     O2724   2.436   1_556  S
Zr1402     O3172   2.353       .  S
Zr1402     O3170   2.400       .  S
O1403      H1419   0.990       .  S
O1404     Zr2722   2.440   1_455  S
O1404      H1418   0.990       .  S
O1404      H3188   0.990       .  S
Zr1405     O3157   2.437   1_455  S
Zr1405     O3168   2.410   1_455  S
Zr1405     O3171   2.364   1_455  S
Zr1406     O3131   2.447       .  S
Zr1406     O3146   2.422       .  S
Zr1406     O3172   2.363       .  S
O1407      H1415   0.965   1_545  S
O1408     Zr3165   2.406       .  S
O1409     Zr3139   2.375       .  S
O1410     Zr3162   2.391   1_455  S
O1411     Zr3139   2.353       .  S
O1411     Zr3165   2.362       .  S
O1411      H1416   0.965       .  S
O1412     Zr3162   2.351   1_455  S
O1412     Zr3166   2.362   1_455  S
H1426      O3141   0.990       .  S
H1428      O3164   0.990       .  S
O1429     Zr1441   2.456   1_565  S
O1429      C1431   1.289       .  A
O1430     Zr1467   2.406       .  S
O1430      C1431   1.280       .  A
C1431      C1593   1.500       .  S
O1432     Zr1444   2.464       .  S
O1432      C1434   1.290       .  A
O1433     Zr3228   2.416   1_455  S
O1433      C1434   1.284       .  A
C1434      C1565   1.487       .  S
O1435     Zr1444   2.434       .  S
O1435      C1437   1.286       .  A
O1436      C1437   1.294       .  A
C1437      C1680   1.514       .  S
O1438     Zr1441   2.420       .  S
O1438      C2320   1.267       .  A
O1439     Zr1468   2.387       .  S
O1439      C1440   1.267       .  A
C1440      O2318   1.269       .  A
Zr1441     O3203   2.437   1_545  S
Zr1441     O3231   2.407   1_445  S
Zr1441     O3233   2.384   1_445  S
O1442      H1485   0.989       .  S
O1443     Zr3201   2.439   1_565  S
O1443      H1484   0.990       .  S
O1443      H3248   0.989   1_565  S
Zr1444     O1445   2.441       .  S
Zr1444     O1446   2.437       .  S
Zr1444     O1448   2.344       .  S
Zr1444     O1447   2.394       .  S
Zr1444     O1472   2.360       .  S
Zr1444     O1474   2.378   1_455  S
O1445      H1486   0.990       .  S
O1445      H1489   0.990       .  S
O1446      H1479   0.990       .  S
O1448     Zr3228   2.413   1_455  S
O1448      H1475   0.966       .  S
O1449     Zr1461   2.411       .  S
O1449      C1451   1.281       .  A
O1450      C1451   1.292   1_545  A
C1451      C1579   1.509       .  S
O1452     Zr1464   2.441       .  S
O1453     Zr1467   2.400   1_655  S
O1453      C3214   1.265       .  A
C1454      O3213   1.264       .  A
O1455     Zr1464   2.474       .  S
O1455      C1457   1.293       .  A
O1456     Zr1468   2.377       .  S
O1456      C1457   1.277       .  A
C1457      C1649   1.488       .  S
O1458     Zr1461   2.429       .  S
O1458      C1460   1.284       .  A
O1459     Zr3227   2.433       .  S
O1459      C1460   1.287       .  A
C1460      C1666   1.481       .  S
Zr1461     O1462   2.437       .  S
Zr1461     O1463   2.434       .  S
Zr1461     O1469   2.401       .  S
Zr1461     O1470   2.319       .  S
Zr1461     O1473   2.387       .  S
Zr1461     O1471   2.329       .  S
O1462      H1482   0.990       .  S
O1462      H1487   0.990       .  S
O1463      H1483   0.990       .  S
Zr1464     O3226   2.438       .  S
Zr1464     O3234   2.360       .  S
Zr1464     O3232   2.412       .  S
O1465      H1481   0.990       .  S
O1466     Zr3224   2.439       .  S
O1466      H1480   0.990       .  S
O1466      H3250   0.990       .  S
Zr1467     O3219   2.439   1_455  S
Zr1467     O3230   2.381   1_455  S
Zr1467     O3233   2.379   1_455  S
Zr1468     O3193   2.421       .  S
Zr1468     O3208   2.408       .  S
Zr1468     O3234   2.373       .  S
O1469      H1477   0.964       .  S
O1470     Zr3227   2.381       .  S
O1471     Zr3201   2.413   1_565  S
O1472     Zr3224   2.408   1_455  S
O1472      H1476   0.960       .  S
O1473     Zr3201   2.384   1_565  S
O1473     Zr3227   2.378       .  S
O1473      H1478   0.966       .  S
O1474     Zr3224   2.362       .  S
O1474     Zr3228   2.374       .  S
H1488      O3203   0.990   1_545  S
H1490      O3226   0.990       .  S
C1491      C1493   1.558       .  S
C1491      C1495   1.528       .  S
C1491      C1494   1.563       .  S
C1491      C1540   1.598       .  S
C1492      C1496   1.548       .  S
C1492      C1498   1.532       .  S
C1492      C1497   1.553       .  S
C1492      C1551   1.601       .  S
C1493      C1501   1.384       .  A
C1493      C1496   1.410       .  A
C1494      C1505   1.388       .  A
C1494      C1497   1.418       .  A
C1495      C1509   1.374       .  A
C1495      C1498   1.398       .  A
C1496      C1499   1.377       .  A
C1497      C1503   1.378       .  A
C1498      C1506   1.370       .  A
C1499      N1500   1.362       .  A
C1499      H1512   1.082       .  S
N1500      C1501   1.363       .  A
N1500      C1638   1.458       .  S
C1501      H1502   1.081       .  S
C1503      N1504   1.356       .  A
C1503      H1513   1.081       .  S
N1504      C1505   1.359       .  A
N1504      C1610   1.443       .  S
C1505      H1511   1.082       .  S
C1506      N1507   1.354       .  A
C1506      H1508   1.083       .  S
N1507      C1509   1.352       .  A
N1507      C1621   1.426       .  S
C1509      H1510   1.082       .  S
C1514      C1516   1.557       .  S
C1514      C1518   1.543       .  S
C1514      C1517   1.564       .  S
C1514      C1554   1.602       .  S
C1515      C1519   1.553       .  S
C1515      C1521   1.538       .  S
C1515      C1520   1.539       .  S
C1515      C1537   1.601       .  S
C1516      C1524   1.384       .  A
C1516      C1519   1.416       .  A
C1517      C1528   1.394       .  A
C1517      C1520   1.405       .  A
C1518      C1532   1.380       .  A
C1518      C1521   1.405       .  A
C1519      C1522   1.378       .  A
C1520      C1526   1.366       .  A
C1521      C1529   1.377       .  A
C1522      N1523   1.356       .  A
C1522      H1535   1.080       .  S
N1523      C1524   1.358       .  A
N1523      C1596   1.446       .  S
C1524      H1525   1.082       .  S
C1526      N1527   1.353       .  A
C1526      H1536   1.081       .  S
N1527      C1528   1.370       .  A
N1527      C1568   1.456       .  S
C1528      H1534   1.081       .  S
C1529      N1530   1.358       .  A
C1529      H1531   1.082       .  S
N1530      C1532   1.358       .  A
N1530      C1582   1.440       .  S
C1532      H1533   1.082       .  S
C1537      C1538   1.429       .  A
C1537      C1542   1.425       .  A
C1538      C1539   1.434       .  A
C1538      C1543   1.453       .  S
C1539      C1540   1.428       .  A
C1539      C1546   1.449       .  S
C1540      C1541   1.431       .  A
C1541      C1542   1.439       .  A
C1541      C1544   1.450       .  S
C1542      C1545   1.449       .  S
C1543      N1550   1.158       .  T
C1544      N1549   1.158       .  T
C1545      N1547   1.158       .  T
C1546      N1548   1.157       .  T
C1551      C1552   1.429       .  A
C1551      C1556   1.428       .  A
C1552      C1553   1.442   1_556  A
C1552      C1557   1.448       .  S
C1553      C1560   1.449       .  S
C1555      C1556   1.435   1_554  A
C1556      C1559   1.450       .  S
C1557      N1564   1.157       .  T
C1558      N1563   1.156       .  T
C1559      N1561   1.157       .  T
C1560      N1562   1.157       .  T
C1565      C1566   1.410       .  A
C1565      C1570   1.409       .  A
C1566      C1567   1.412       .  A
C1566      C1571   1.448       .  S
C1567      C1568   1.415       .  A
C1567      C1574   1.446       .  S
C1568      C1569   1.423       .  A
C1569      C1570   1.414       .  A
C1569      C1572   1.451       .  S
C1570      C1573   1.451       .  S
C1571      N1578   1.155       .  T
C1572      N1577   1.158       .  T
C1573      N1575   1.158       .  T
C1574      N1576   1.157       .  T
C1579      C1580   1.422       .  A
C1579      C1584   1.426       .  A
C1580      C1581   1.418       .  A
C1580      C1585   1.448   1_565  S
C1581      C1582   1.406       .  A
C1581      C1588   1.449       .  S
C1582      C1583   1.401       .  A
C1583      C1584   1.409       .  A
C1583      C1586   1.450       .  S
C1584      C1587   1.449       .  S
C1585      N1592   1.157       .  T
C1586      N1591   1.157       .  T
C1587      N1589   1.156       .  T
C1588      N1590   1.157       .  T
C1593      C1594   1.423       .  A
C1593      C1598   1.418       .  A
C1594      C1595   1.411       .  A
C1594      C1599   1.451       .  S
C1595      C1596   1.410       .  A
C1595      C1602   1.451       .  S
C1596      C1597   1.411       .  A
C1597      C1598   1.412       .  A
C1597      C1600   1.447       .  S
C1598      C1601   1.453       .  S
C1599      N3366   1.157       .  T
C1600      N1605   1.156       .  T
C1602      N1604   1.157       .  T
N1606      C3359   1.158       .  T
C1607      C1608   1.428       .  A
C1607      C1612   1.426       .  A
C1608      C1609   1.411       .  A
C1608      C1613   1.452       .  S
C1609      C1610   1.403       .  A
C1609      C1616   1.451       .  S
C1610      C1611   1.405       .  A
C1611      C1612   1.420       .  A
C1611      C1614   1.448       .  S
C1612      C1615   1.449       .  S
C1613      N1620   1.158       .  T
C1614      N1619   1.157       .  T
C1615      N3377   1.157   1_455  T
C1616      N1618   1.157       .  T
N1617      C3375   1.157       .  T
C1621      C1622   1.400       .  A
C1621      C1626   1.403       .  A
C1622      C1623   1.402       .  A
C1622      C1627   1.450       .  S
C1623      C1624   1.419       .  A
C1623      C1630   1.450       .  S
C1624      C1625   1.419       .  A
C1625      C1626   1.408       .  A
C1626      C1629   1.449       .  S
C1627      N1634   1.157       .  T
C1628      N1633   1.157       .  T
C1630      N1632   1.157       .  T
C1635      C1636   1.420       .  A
C1635      C1640   1.419       .  A
C1636      C1637   1.411       .  A
C1636      C1641   1.451       .  S
C1637      C1638   1.416       .  A
C1637      C1644   1.450       .  S
C1638      C1639   1.417       .  A
C1639      C1640   1.420       .  A
C1639      C1642   1.450       .  S
C1640      C1643   1.450       .  S
C1641      N1648   1.157       .  T
C1642      N1647   1.158       .  T
C1643      N3405   1.157   1_455  T
C1644      N1646   1.157       .  T
N1645      C3403   1.157       .  T
C1649      C1650   1.415       .  A
C1649      C1654   1.420       .  A
C1650      C1651   1.412       .  A
C1650      C1655   1.450       .  S
C1651      C1652   1.408       .  A
C1651      C1658   1.448       .  S
C1652      C1653   1.398       .  A
C1653      C1654   1.400       .  A
C1653      C1656   1.449       .  S
C1654      C1657   1.447       .  S
C1656      N1661   1.157       .  T
C1657      N3419   1.156       .  T
C1658      N1660   1.157       .  T
N1659      C3417   1.155       .  T
C1663      C1664   1.410       .  A
C1663      C1668   1.414       .  A
C1664      C1665   1.412       .  A
C1664      C1669   1.447       .  S
C1665      C1666   1.412       .  A
C1665      C1672   1.450       .  S
C1666      C1667   1.408       .  A
C1667      C1668   1.410       .  A
C1667      C1670   1.450       .  S
C1668      C1671   1.448       .  S
C1669      N1676   1.157       .  T
C1670      N1675   1.157       .  T
C1671      N1673   1.157       .  T
C1672      N1674   1.157       .  T
C1677      C1678   1.404       .  A
C1677      C1682   1.406       .  A
C1678      C1679   1.411       .  A
C1678      C1683   1.450       .  S
C1679      C1680   1.427       .  A
C1679      C1686   1.451       .  S
C1680      C1681   1.424       .  A
C1681      C1682   1.419       .  A
C1681      C1684   1.446       .  S
C1682      C1685   1.449       .  S
C1683      N1690   1.157       .  T
C1684      N1689   1.156       .  T
C1685      N1687   1.157       .  T
C1686      N1688   1.157       .  T
C1691      C1692   1.417       .  A
C1691      C1696   1.411       .  A
C1693      C1700   1.448       .  S
C1694      C1695   1.410       .  A
C1695      C1696   1.410       .  A
C1695      C1698   1.449       .  S
C1696      C1699   1.450       .  S
C1698      N1703   1.157       .  T
C1699      N1701   1.157       .  T
C1700      N1702   1.157       .  T
C1705      C1710   1.400       .  A
C1706      C1711   1.450       .  S
C1707      C1708   1.428   1_554  A
C1708      C1709   1.428       .  A
C1709      C1710   1.408   1_556  A
C1709      C1712   1.452       .  S
C1710      C1713   1.450       .  S
C1711      N1718   1.157       .  T
C1712      N1717   1.158       .  T
C1713      N1715   1.157       .  T
C1714      N3476   1.157       .  T
N1716      C3474   1.157   1_455  T
C1719      C1720   1.410       .  A
C1720      C1721   1.408       .  A
C1720      C1725   1.451       .  S
C1721      C1722   1.412       .  A
C1721      C1728   1.450       .  S
C1723      C1724   1.405       .  A
C1723      C1726   1.448       .  S
C1724      C1727   1.444       .  S
C1725      N1732   1.157       .  T
C1726      N1731   1.157       .  T
C1727      N1729   1.154       .  T
C1728      N1730   1.157       .  T
C1733      C1734   1.409       .  A
C1733      C1738   1.434       .  A
C1734      C1735   1.410       .  A
C1734      C1739   1.442       .  S
C1735      C1736   1.418       .  A
C1735      C1742   1.443       .  S
C1736      C1737   1.431       .  A
C1737      C1738   1.449       .  A
C1737      C1740   1.444       .  S
C1738      C1741   1.446       .  S
C1739      N1746   1.157       .  T
C1740      N1745   1.156       .  T
C1741      N1743   1.157       .  T
C1742      N1744   1.157       .  T
C1747      C1748   1.431       .  A
C1747      C1752   1.437       .  A
C1748      C1749   1.439       .  A
C1748      C1753   1.449       .  S
C1749      C1750   1.425       .  A
C1749      C1756   1.449       .  S
C1750      C1751   1.418       .  A
C1751      C1752   1.434       .  A
C1751      C1754   1.454       .  S
C1752      C1755   1.444       .  S
C1753      N1760   1.158       .  T
C1754      N1759   1.158       .  T
C1755      N1757   1.155       .  T
C1756      N1758   1.157       .  T
C1761      C1763   1.548   1_554  S
C1761      C1765   1.539       .  S
C1761      C1764   1.545       .  S
C1761      C2190   1.592       .  S
C1762      C1766   1.562       .  S
C1762      C1768   1.542       .  S
C1762      C1767   1.535       .  S
C1762      C2173   1.595       .  S
C1763      C1771   1.379   1_556  A
C1763      C2206   1.415       .  A
C1764      C1775   1.381       .  A
C1764      C2207   1.408   1_554  A
C1765      C1779   1.377       .  A
C1765      C2208   1.405   1_554  A
C1766      C2203   1.415       .  A
C1766      C1769   1.384       .  A
C1767      C2204   1.408       .  A
C1767      C1773   1.367       .  A
C1768      C2205   1.407       .  A
C1768      C1776   1.377       .  A
C1769      N1770   1.353       .  A
C1769      H1782   1.077       .  S
N1770      C2211   1.351       .  A
N1770      C2134   1.436       .  S
C1771      N2210   1.352   1_554  A
C1771      H1772   1.082       .  S
C1773      N2214   1.355       .  A
C1773      H1783   1.082       .  S
N1774      C2213   1.357       .  A
N1774      C1775   1.358   1_556  A
N1774      C2602   1.442       .  S
C1775      H1781   1.082       .  S
C1776      N2217   1.359       .  A
C1776      H1778   1.082       .  S
N1777      C2216   1.357       .  A
N1777      C1779   1.356   1_556  A
N1777      C2585   1.436   1_556  S
C1779      H1780   1.082       .  S
C1784      C1786   1.542       .  S
C1784      C1788   1.551       .  S
C1784      C1787   1.530       .  S
C1784      C2187   1.598       .  S
C1785      C1789   1.557       .  S
C1785      C1791   1.549       .  S
C1785      C1790   1.552       .  S
C1785      C2176   1.594       .  S
C1786      C1794   1.376       .  A
C1786      C1789   1.411       .  A
C1787      C1798   1.366       .  A
C1787      C1790   1.404       .  A
C1788      C1802   1.379       .  A
C1788      C1791   1.413       .  A
C1789      C1792   1.382       .  A
C1790      C1796   1.389       .  A
C1791      C1799   1.380       .  A
C1792      N1793   1.350       .  A
C1792      H1805   1.079       .  S
N1793      C1794   1.352       .  A
N1793      C2092   1.430       .  S
C1794      H1795   1.082       .  S
C1796      N1797   1.364       .  A
C1796      H1806   1.082       .  S
N1797      C1798   1.350       .  A
N1797      C2103   1.439       .  S
C1798      H1804   1.083       .  S
C1799      N1800   1.359       .  A
C1799      H1801   1.082       .  S
N1800      C1802   1.357       .  A
N1800      C2117   1.441       .  S
C1802      H1803   1.082       .  S
O1807     Zr1819   2.461       .  S
O1807      C1809   1.290       .  A
O1808     Zr1845   2.410       .  S
O1808      C1809   1.282       .  A
C1809      C2075   1.498       .  S
O1810     Zr1822   2.433       .  S
O1810      C1812   1.286       .  A
O1811      C1812   1.292       .  A
C1812      C2047   1.511       .  S
O1813     Zr1822   2.423       .  S
O1813      C1815   1.284       .  A
O1814     Zr2725   2.428   1_545  S
O1814      C1815   1.286       .  A
C1815      C2159   1.470       .  S
O1816     Zr1819   2.371       .  S
O1817     Zr1846   2.382   1_565  S
O1817      C1818   1.267       .  A
C1818      C2774   1.420       .  S
Zr1819     O2700   2.427       .  S
Zr1819     O2705   2.347       .  S
Zr1819     O2706   2.419       .  S
O1820     Zr2699   2.427       .  S
O1820      H1863   0.990       .  S
O1821      H1862   0.990       .  S
Zr1822     O1823   2.436       .  S
Zr1822     O1824   2.435       .  S
Zr1822     O1826   2.347       .  S
Zr1822     O1825   2.383       .  S
Zr1822     O1850   2.356       .  S
Zr1822     O1852   2.377       .  S
O1823      H1864   0.990       .  S
O1823      H1867   0.989       .  S
O1824      H1857   0.990       .  S
O1825     Zr2699   2.343   1_545  S
O1825     Zr2725   2.376   1_545  S
O1826     Zr2699   2.417   1_545  S
O1826      H1853   0.968       .  S
O1827     Zr1839   2.437       .  S
O1827      C1829   1.288       .  A
O1828     Zr2726   2.409       .  S
O1828      C1829   1.285       .  A
C1829      C2064   1.483       .  S
O1830     Zr2282   2.391   1_564  S
O1830      C2712   1.267   1_565  A
O1831     Zr2285   2.363   1_554  S
C1832      O2710   1.267       .  A
C1832      C2760   1.441   1_655  S
O1833     Zr1842   2.435       .  S
O1833      C1835   1.284       .  A
O1834     Zr1846   2.431       .  S
O1834      C1835   1.286       .  A
C1835      C2131   1.476       .  S
O1836     Zr1839   2.433       .  S
O1836      C1838   1.285       .  A
O1837      C1838   1.289       .  A
C1838      C2148   1.513       .  S
Zr1839     O1840   2.434       .  S
Zr1839     O1841   2.429       .  S
Zr1839     O1847   2.373       .  S
Zr1839     O1848   2.336       .  S
Zr1839     O1851   2.390       .  S
Zr1839     O1849   2.336       .  S
O1840      H1860   0.990       .  S
O1840      H1865   0.990       .  S
O1841      H1861   0.990       .  S
Zr1842     O2270   2.391   1_545  S
Zr1842     O3163   2.426       .  S
Zr1842     O2728   2.398   1_545  S
Zr1842     O2727   2.366       .  S
O1843     Zr3162   2.422   1_554  S
O1843      H1859   0.990       .  S
O1844      H1858   0.990   1_554  S
Zr1845     O2694   2.438       .  S
Zr1845     O2271   2.364       .  S
Zr1845     O2705   2.379       .  S
Zr1845     O2730   2.432       .  S
Zr1846     O2708   2.422   1_545  S
Zr1846     O2727   2.377       .  S
Zr1846     O2729   2.395   1_545  S
O1847     Zr2722   2.365       .  S
O1847     Zr2726   2.377       .  S
O1847      H1855   0.964       .  S
O1848     Zr2722   2.401       .  S
O1849     Zr2726   2.396       .  S
O1850     Zr2725   2.435   1_545  S
O1850      H2294   0.964       .  S
O1851      H1856   0.965       .  S
H1854      O2290   0.963       .  S
O1869     Zr1881   2.463       .  S
O1869      C1871   1.290       .  A
O1870     Zr1907   2.419       .  S
O1870      C1871   1.282       .  A
C1871      C2033   1.509       .  S
O1872     Zr1884   2.452       .  S
O1872      C1874   1.289       .  A
O1873      C1874   1.285       .  A
C1874      C2005   1.482       .  S
O1875     Zr1884   2.430       .  S
O1875      C1877   1.286       .  A
O1876     Zr2787   2.459   1_545  S
O1876      C1877   1.293       .  A
C1877      C2120   1.508       .  S
O1878     Zr1881   2.427       .  S
O1879     Zr1908   2.385   1_455  S
O1879      C1880   1.266       .  A
C1880      C2712   1.441   1_455  S
Zr1881     O2762   2.438       .  S
Zr1881     O2767   2.339       .  S
Zr1881     O2768   2.396       .  S
O1882     Zr2761   2.436       .  S
O1882      H1925   0.990       .  S
O1883      H1924   0.990       .  S
Zr1884     O1885   2.438       .  S
Zr1884     O1886   2.437       .  S
Zr1884     O1888   2.342       .  S
Zr1884     O1887   2.388       .  S
Zr1884     O1912   2.358       .  S
Zr1884     O1914   2.382       .  S
O1885      H1926   0.990       .  S
O1885      H1929   0.990       .  S
O1886      H1919   0.990       .  S
O1887     Zr2761   2.340       .  S
O1887     Zr2787   2.375   1_545  S
O1888     Zr2761   2.392       .  S
O1888      H1915   0.966       .  S
O1889     Zr1901   2.407       .  S
O1889      C1891   1.280       .  A
O1890     Zr2788   2.453       .  S
O1890      C1891   1.289       .  A
C1891      C2019   1.502       .  S
O1892     Zr1904   2.434   1_565  S
O1892      C2774   1.273       .  A
O1893     Zr1907   2.393       .  S
C1894      O2772   1.270       .  A
C1894      C2698   1.425       .  S
O1895     Zr1904   2.479       .  S
O1895      C1897   1.294       .  A
O1896     Zr1908   2.376       .  S
O1896      C1897   1.277       .  A
C1897      C2089   1.490       .  S
O1898     Zr1901   2.417       .  S
O1898      C1900   1.281       .  A
O1899      C1900   1.288       .  A
C1900      C2106   1.478       .  S
Zr1901     O1902   2.436       .  S
Zr1901     O1903   2.441       .  S
Zr1901     O1909   2.403       .  S
Zr1901     O1913   2.383       .  S
Zr1901     O1911   2.320       .  S
Zr1901     O1910   2.246       .  S
O1902      H1922   0.990       .  S
O1902      H1927   0.990       .  S
O1903      H1923   0.990       .  S
Zr1904     O2785   2.434   1_545  S
Zr1904     O2790   2.379   1_545  S
Zr1904     O2789   2.360   1_545  S
O1905     Zr2784   2.433       .  S
O1905      H1921   0.990       .  S
O1906      H1920   0.990       .  S
Zr1907     O2756   2.460       .  S
Zr1907     O2767   2.372       .  S
Zr1907     O2792   2.445       .  S
Zr1908     O2770   2.460       .  S
Zr1908     O2789   2.382   1_545  S
Zr1908     O2791   2.393   1_545  S
O1909     Zr2784   2.356       .  S
O1909     Zr2788   2.387       .  S
O1909      H1917   0.965       .  S
O1910     Zr2784   2.291       .  S
O1911     Zr2788   2.398       .  S
O1912     Zr2787   2.447   1_545  S
O1912      H1916   0.960       .  S
O1913      H1918   0.966       .  S
C1931      C1933   1.559       .  S
C1931      C1935   1.527       .  S
C1931      C1934   1.561       .  S
C1931      C1980   1.603       .  S
C1932      C1936   1.547       .  S
C1932      C1938   1.532       .  S
C1932      C1937   1.559       .  S
C1932      C1991   1.606       .  S
C1933      C1941   1.383       .  A
C1933      C1936   1.412       .  A
C1934      C1945   1.386       .  A
C1934      C1937   1.419       .  A
C1935      C1949   1.373       .  A
C1935      C1938   1.398       .  A
C1936      C1939   1.375       .  A
C1937      C1943   1.381       .  A
C1938      C1946   1.371       .  A
C1939      N1940   1.359       .  A
C1939      H1952   1.082       .  S
N1940      C1941   1.363       .  A
N1940      C2078   1.453       .  S
C1941      H1942   1.081       .  S
C1943      N1944   1.358       .  A
C1943      H1953   1.081       .  S
N1944      C1945   1.357       .  A
N1944      C2050   1.444       .  S
C1945      H1951   1.082       .  S
C1946      N1947   1.354       .  A
C1946      H1948   1.083       .  S
N1947      C1949   1.352       .  A
N1947      C2061   1.426       .  S
C1949      H1950   1.082       .  S
C1954      C1956   1.554       .  S
C1954      C1958   1.538       .  S
C1954      C1957   1.562       .  S
C1954      C1994   1.596       .  S
C1955      C1959   1.554       .  S
C1955      C1961   1.540       .  S
C1955      C1960   1.545       .  S
C1955      C1977   1.603       .  S
C1956      C1964   1.384       .  A
C1956      C1959   1.413       .  A
C1957      C1968   1.393       .  A
C1957      C1960   1.406       .  A
C1958      C1972   1.376       .  A
C1958      C1961   1.405       .  A
C1959      C1962   1.380       .  A
C1960      C1966   1.368       .  A
C1961      C1969   1.375       .  A
C1962      N1963   1.357       .  A
C1962      H1975   1.081       .  S
N1963      C1964   1.358       .  A
N1963      C2036   1.447       .  S
C1964      H1965   1.082       .  S
C1966      N1967   1.356       .  A
C1966      H1976   1.080       .  S
N1967      C1968   1.368       .  A
N1967      C2008   1.458       .  S
C1968      H1974   1.081       .  S
C1969      N1970   1.359       .  A
C1969      H1971   1.082       .  S
N1970      C1972   1.355       .  A
N1970      C2022   1.436       .  S
C1972      H1973   1.082       .  S
C1977      C1978   1.425       .  A
C1977      C1982   1.424       .  A
C1978      C1979   1.436       .  A
C1978      C1983   1.451       .  S
C1979      C1980   1.431       .  A
C1979      C1986   1.449       .  S
C1980      C1981   1.432       .  A
C1981      C1982   1.441       .  A
C1981      C1984   1.449       .  S
C1982      C1985   1.450       .  S
C1983      N1990   1.157       .  T
C1984      N1989   1.158       .  T
C1985      N1987   1.158       .  T
C1986      N1988   1.157       .  T
C1991      C1992   1.431       .  A
C1991      C1996   1.432       .  A
C1992      C1993   1.442       .  A
C1992      C1997   1.445       .  S
C1993      C2434   1.424       .  A
C1993      C2000   1.449       .  S
C1994      C2433   1.422       .  A
C1994      C2435   1.425       .  A
C1995      C2434   1.425       .  A
C1995      C1996   1.438       .  A
C1995      C2438   1.447       .  S
C1996      C1999   1.451       .  S
C1997      N2004   1.157       .  T
C1998      C2435   1.448       .  S
C1998      N2003   1.157       .  T
C1999      N2001   1.158       .  T
C2000      N2002   1.157       .  T
C2005      C2006   1.409       .  A
C2005      C2010   1.406       .  A
C2006      C2007   1.415       .  A
C2006      C2011   1.450       .  S
C2007      C2008   1.421       .  A
C2007      C2014   1.447       .  S
C2008      C2009   1.422       .  A
C2009      C2010   1.410       .  A
C2009      C2012   1.450       .  S
C2010      C2013   1.452       .  S
C2011      N2018   1.156       .  T
C2012      N2017   1.157       .  T
C2013      N2015   1.157       .  T
C2014      N2016   1.157       .  T
C2019      C2020   1.422       .  A
C2019      C2024   1.427       .  A
C2020      C2021   1.412       .  A
C2020      C2025   1.448       .  S
C2021      C2022   1.404       .  A
C2021      C2028   1.450       .  S
C2022      C2023   1.402       .  A
C2023      C2024   1.409       .  A
C2023      C2026   1.450       .  S
C2024      C2027   1.450       .  S
C2025      N2032   1.157       .  T
C2026      N2031   1.157       .  T
C2027      N2029   1.156       .  T
C2028      N2030   1.157       .  T
C2033      C2034   1.425       .  A
C2033      C2038   1.421       .  A
C2034      C2035   1.412       .  A
C2034      C2039   1.450       .  S
C2035      C2036   1.408       .  A
C2035      C2042   1.451       .  S
C2036      C2037   1.410       .  A
C2037      C2038   1.416       .  A
C2037      C2040   1.449       .  S
C2038      C2041   1.452       .  S
C2040      N2045   1.157       .  T
C2041      N2923   1.157       .  T
C2042      N2044   1.157       .  T
N2043      C2921   1.157   1_545  T
C2047      C2048   1.427       .  A
C2047      C2052   1.425       .  A
C2048      C2049   1.409       .  A
C2048      C2053   1.452       .  S
C2049      C2050   1.403       .  A
C2049      C2056   1.450       .  S
C2050      C2051   1.406       .  A
C2051      C2052   1.420       .  A
C2051      C2054   1.448       .  S
C2052      C2055   1.450       .  S
C2053      N2060   1.158       .  T
C2054      N2059   1.157       .  T
C2056      N2058   1.157       .  T
C2061      C2062   1.401       .  A
C2061      C2066   1.403       .  A
C2062      C2063   1.403       .  A
C2062      C2067   1.450       .  S
C2063      C2064   1.417       .  A
C2063      C2070   1.450       .  S
C2064      C2065   1.417       .  A
C2065      C2066   1.407       .  A
C2065      C2948   1.449       .  S
C2066      C2069   1.449       .  S
C2067      N2074   1.157       .  T
C2068      C2945   1.449   1_545  S
C2068      N2073   1.157       .  T
C2069      N2951   1.157       .  T
C2070      N2072   1.157       .  T
N2071      C2949   1.157       .  T
C2075      C2076   1.417       .  A
C2075      C2080   1.416       .  A
C2076      C2077   1.410       .  A
C2076      C2081   1.451       .  S
C2077      C2078   1.417       .  A
C2077      C2084   1.450       .  S
C2078      C2079   1.416       .  A
C2079      C2080   1.416       .  A
C2079      C2082   1.450       .  S
C2080      C2083   1.450       .  S
C2081      N2088   1.157       .  T
C2082      N2087   1.158       .  T
C2084      N2086   1.157       .  T
C2089      C2090   1.416       .  A
C2089      C2094   1.421       .  A
C2090      C2091   1.414       .  A
C2090      C2095   1.449       .  S
C2091      C2092   1.408       .  A
C2091      C2098   1.448       .  S
C2092      C2093   1.397       .  A
C2093      C2094   1.399       .  A
C2093      C2096   1.449       .  S
C2094      C2097   1.448       .  S
C2095      N2982   1.157   1_545  T
C2096      N2101   1.157       .  T
C2098      N2100   1.157       .  T
N2102      C2975   1.157       .  T
C2103      C2104   1.409       .  A
C2103      C2108   1.413       .  A
C2104      C2105   1.410       .  A
C2104      C2109   1.447       .  S
C2105      C2106   1.412       .  A
C2105      C2112   1.451       .  S
C2106      C2107   1.408       .  A
C2107      C2108   1.409       .  A
C2107      C2110   1.451       .  S
C2108      C2111   1.448       .  S
C2109      N2116   1.157       .  T
C2110      N2115   1.158       .  T
C2111      N2113   1.157       .  T
C2112      N2114   1.157       .  T
C2117      C2118   1.405       .  A
C2117      C2122   1.405       .  A
C2118      C2119   1.411       .  A
C2118      C2123   1.449       .  S
C2119      C2120   1.424       .  A
C2119      C2126   1.450       .  S
C2120      C2121   1.421       .  A
C2121      C2122   1.415       .  A
C2121      C2124   1.444       .  S
C2122      C2125   1.450       .  S
C2123      N2130   1.157       .  T
C2124      N2129   1.156   1_545  T
C2125      N2127   1.157       .  T
C2126      N2128   1.156       .  T
C2131      C2132   1.415       .  A
C2131      C2136   1.409       .  A
C2132      C2573   1.410       .  A
C2132      C2577   1.451       .  S
C2133      C2572   1.413       .  A
C2133      C2574   1.408       .  A
C2133      C2140   1.448       .  S
C2134      C2573   1.405       .  A
C2134      C2135   1.411       .  A
C2135      C2136   1.408       .  A
C2135      C2138   1.449       .  S
C2136      C2139   1.450       .  S
C2137      C2572   1.451       .  S
C2137      N3024   1.157   1_545  T
C2138      N2143   1.157       .  T
C2139      N2141   1.157   1_655  T
C2140      N2142   1.157       .  T
N2144      C3017   1.157       .  T
C2145      C2586   1.402       .  A
C2145      C2150   1.400       .  A
C2145      N2217   1.436       .  S
C2146      C2585   1.401       .  A
C2146      C2587   1.414       .  A
C2146      C2151   1.449       .  S
C2147      C2586   1.414       .  A
C2147      C2148   1.428       .  A
C2147      C2594   1.450       .  S
C2148      C2149   1.431       .  A
C2149      C2150   1.408       .  A
C2149      C2152   1.452       .  S
C2150      C2153   1.450       .  S
C2151      N2158   1.157       .  T
C2152      N2157   1.158       .  T
C2153      N2155   1.157       .  T
C2154      C2587   1.450       .  S
C2159      C2160   1.409       .  A
C2159      C2604   1.405       .  A
C2160      C2161   1.408       .  A
C2160      C2165   1.452       .  S
C2161      C2162   1.415       .  A
C2161      C2168   1.450       .  S
C2162      C2603   1.412       .  A
C2162      N2214   1.442       .  S
C2163      C2602   1.412   1_554  A
C2163      C2164   1.405       .  A
C2163      C2166   1.448       .  S
C2164      C2599   1.406   1_554  A
C2164      C2167   1.445       .  S
C2165      N2172   1.157       .  T
C2166      N2171   1.157       .  T
C2167      N2169   1.155       .  T
C2168      N2170   1.157       .  T
C2173      C2174   1.412       .  A
C2173      C2178   1.434       .  A
C2174      C2175   1.409       .  A
C2174      C2179   1.441       .  S
C2175      C2176   1.415       .  A
C2175      C2182   1.444       .  S
C2176      C2177   1.427       .  A
C2177      C2178   1.444       .  A
C2177      C2180   1.444       .  S
C2178      C2181   1.445       .  S
C2179      N2186   1.157       .  T
C2180      N2185   1.156       .  T
C2181      N2183   1.156       .  T
C2182      N2184   1.157       .  T
C2187      C2188   1.429       .  A
C2187      C2192   1.431       .  A
C2188      C2189   1.437       .  A
C2188      C2193   1.449       .  S
C2189      C2190   1.427       .  A
C2189      C2196   1.450       .  S
C2190      C2191   1.423       .  A
C2191      C2192   1.432       .  A
C2191      C2194   1.451       .  S
C2192      C2195   1.447       .  S
C2193      N2200   1.158       .  T
C2194      N2199   1.158       .  T
C2195      N2197   1.155       .  T
C2196      N2198   1.157       .  T
C2201      C2203   1.545       .  S
C2201      C2205   1.538       .  S
C2201      C2204   1.550       .  S
C2201      C2630   1.595       .  S
C2202      C2206   1.565       .  S
C2202      C2208   1.537       .  S
C2202      C2207   1.539       .  S
C2202      C2613   1.595       .  S
C2203      C2211   1.378       .  A
C2204      C2215   1.382       .  A
C2205      C2219   1.376       .  A
C2206      C2209   1.387       .  A
C2207      C2213   1.367       .  A
C2208      C2216   1.374       .  A
C2209      N2210   1.356       .  A
C2209      H2222   1.078       .  S
N2210      C2574   1.439       .  S
C2211      H2212   1.082       .  S
C2213      H2223   1.082       .  S
N2214      C2215   1.360       .  A
C2215      H2221   1.082       .  S
C2216      H2218   1.082       .  S
N2217      C2219   1.355       .  A
C2219      H2220   1.082       .  S
C2224      C2226   1.544       .  S
C2224      C2228   1.552       .  S
C2224      C2227   1.532       .  S
C2224      C2627   1.607       .  S
C2225      C2229   1.557       .  S
C2225      C2231   1.549       .  S
C2225      C2230   1.553       .  S
C2225      C2616   1.600       .  S
C2226      C2234   1.377       .  A
C2226      C2229   1.413       .  A
C2227      C2238   1.365       .  A
C2227      C2230   1.407       .  A
C2228      C2242   1.379       .  A
C2228      C2231   1.415       .  A
C2229      C2232   1.381       .  A
C2230      C2236   1.390       .  A
C2231      C2239   1.380       .  A
C2232      N2233   1.349       .  A
C2232      H2245   1.079       .  S
N2233      C2234   1.352       .  A
N2233      C2532   1.430       .  S
C2234      H2235   1.082       .  S
C2236      N2237   1.365       .  A
C2236      H2246   1.082       .  S
N2237      C2238   1.351       .  A
N2237      C2543   1.441       .  S
C2238      H2244   1.083       .  S
C2239      N2240   1.358       .  A
C2239      H2241   1.082       .  S
N2240      C2242   1.357       .  A
N2240      C2557   1.440       .  S
C2242      H2243   1.082       .  S
O2247     Zr2259   2.472       .  S
O2247      C2249   1.292       .  A
O2248     Zr2285   2.410       .  S
O2248      C2249   1.282       .  A
C2249      C2515   1.505       .  S
O2250     Zr2262   2.451       .  S
O2250      C2252   1.290       .  A
O2251      C2252   1.291       .  A
C2252      C2487   1.516       .  S
O2253     Zr2262   2.437       .  S
O2253      C2255   1.286       .  A
O2254     Zr3165   2.420   1_545  S
O2254      C2255   1.284       .  A
C2255      C2599   1.471       .  S
O2256     Zr2259   2.379       .  S
O2257     Zr2286   2.381   1_565  S
O2257      C2258   1.267       .  A
C2258      C3214   1.418       .  S
Zr2259     O3140   2.423       .  S
Zr2259     O3145   2.340       .  S
Zr2259     O3146   2.419       .  S
O2260     Zr3139   2.431       .  S
O2260      H2303   0.990   1_565  S
O2261      H2302   0.990       .  S
Zr2262     O2263   2.438       .  S
Zr2262     O2264   2.437       .  S
Zr2262     O2266   2.345       .  S
Zr2262     O2265   2.388       .  S
Zr2262     O2290   2.354       .  S
Zr2262     O2292   2.380       .  S
O2263      H2304   0.990       .  S
O2263      H2307   0.990       .  S
O2264      H2297   0.990       .  S
O2265     Zr3139   2.344   1_545  S
O2265     Zr3165   2.379   1_545  S
O2266     Zr3139   2.421   1_545  S
O2266      H2293   0.968       .  S
O2267     Zr2279   2.438       .  S
O2267      C2269   1.289       .  A
O2268     Zr3166   2.403       .  S
O2268      C2269   1.284       .  A
C2269      C2504   1.480       .  S
O2270      C3152   1.267   1_565  A
C2272      O3150   1.267       .  A
C2272      C3200   1.438   1_655  S
O2273     Zr2282   2.446       .  S
O2273      C2275   1.286       .  A
O2274     Zr2286   2.431       .  S
O2274      C2275   1.286       .  A
C2275      C2571   1.479       .  S
O2276     Zr2279   2.425       .  S
O2276      C2278   1.284       .  A
O2277      C2278   1.289       .  A
C2278      C2588   1.511       .  S
Zr2279     O2280   2.436       .  S
Zr2279     O2281   2.431       .  S
Zr2279     O2287   2.373       .  S
Zr2279     O2288   2.339       .  S
Zr2279     O2291   2.385       .  S
Zr2279     O2289   2.331       .  S
O2280      H2300   0.990   1_556  S
O2280      H2305   0.990       .  S
O2281      H2301   0.990       .  S
Zr2282     O2723   2.429   1_556  S
Zr2282     O3168   2.401   1_545  S
Zr2282     O3167   2.365   1_545  S
O2283     Zr2722   2.431       .  S
O2283      H2299   0.990       .  S
O2284      H2298   0.990       .  S
Zr2285     O3134   2.438       .  S
Zr2285     O3145   2.376       .  S
Zr2285     O3170   2.435       .  S
Zr2286     O3148   2.412   1_545  S
Zr2286     O3167   2.378   1_545  S
Zr2286     O3169   2.399   1_545  S
O2287     Zr3162   2.363       .  S
O2287     Zr3166   2.378       .  S
O2287      H2295   0.964       .  S
O2288     Zr3162   2.394       .  S
O2289     Zr3166   2.397       .  S
O2290     Zr3165   2.436   1_545  S
O2291      H2296   0.965       .  S
O2309     Zr2321   2.461       .  S
O2309      C2311   1.289       .  A
O2310     Zr2347   2.416       .  S
O2310      C2311   1.282       .  A
C2311      C2473   1.507       .  S
O2312     Zr2324   2.465       .  S
O2312      C2314   1.291       .  A
O2313      C2314   1.284       .  A
C2314      C2445   1.486       .  S
O2315     Zr2324   2.440       .  S
O2315      C2317   1.288       .  A
O2316     Zr3227   2.454   1_545  S
O2316      C2317   1.292       .  A
C2317      C2560   1.508       .  S
O2318     Zr2321   2.420       .  S
O2319     Zr2348   2.386   1_455  S
O2319      C2320   1.266       .  A
C2320      C3152   1.439   1_455  S
Zr2321     O3202   2.435       .  S
Zr2321     O3207   2.336       .  S
Zr2321     O3208   2.400       .  S
O2322     Zr3201   2.435       .  S
O2322      H2365   0.989       .  S
O2323      H2364   0.990       .  S
Zr2324     O2325   2.439       .  S
Zr2324     O2326   2.437       .  S
Zr2324     O2328   2.343       .  S
Zr2324     O2327   2.391       .  S
Zr2324     O2352   2.360       .  S
Zr2324     O2354   2.376       .  S
O2325      H2366   0.990       .  S
O2325      H2369   0.990       .  S
O2326      H2359   0.990       .  S
O2327     Zr3201   2.334       .  S
O2327     Zr3227   2.377   1_545  S
O2328     Zr3201   2.399       .  S
O2328      H2355   0.965       .  S
O2329     Zr2341   2.421       .  S
O2329      C2331   1.283       .  A
O2330     Zr3228   2.463       .  S
O2330      C2331   1.291       .  A
C2331      C2459   1.508       .  S
O2332     Zr2344   2.434   1_565  S
O2332      C3214   1.273       .  A
O2333     Zr2347   2.403       .  S
C2334      O3212   1.272       .  A
C2334      C3138   1.420       .  S
O2335     Zr2344   2.465       .  S
O2335      C2337   1.291       .  A
O2336     Zr2348   2.376       .  S
O2336      C2337   1.276       .  A
C2337      C2529   1.488       .  S
O2338     Zr2341   2.435       .  S
O2338      C2340   1.285       .  A
O2339      C2340   1.288       .  A
C2340      C2546   1.484       .  S
Zr2341     O2342   2.436       .  S
Zr2341     O2343   2.435       .  S
Zr2341     O2349   2.402       .  S
Zr2341     O2350   2.320       .  S
Zr2341     O2353   2.394       .  S
Zr2341     O2351   2.327       .  S
O2342      H2362   0.990       .  S
O2342      H2367   0.990       .  S
O2343      H2363   0.990       .  S
Zr2344     O3225   2.433   1_545  S
Zr2344     O3230   2.378   1_545  S
Zr2344     O3229   2.363   1_545  S
O2345     Zr3224   2.434       .  S
O2345      H2361   0.990       .  S
O2346      H2360   0.990       .  S
Zr2347     O3196   2.456       .  S
Zr2347     O3207   2.377       .  S
Zr2347     O3232   2.457       .  S
Zr2348     O3210   2.459       .  S
Zr2348     O3229   2.381   1_545  S
Zr2348     O3231   2.398   1_545  S
O2349     Zr3224   2.363       .  S
O2349     Zr3228   2.379       .  S
O2349      H2357   0.964       .  S
O2350     Zr3224   2.377       .  S
O2351     Zr3228   2.400       .  S
O2352     Zr3227   2.447   1_545  S
O2352      H2356   0.960       .  S
O2353      H2358   0.966       .  S
C2371      C2373   1.558       .  S
C2371      C2375   1.525       .  S
C2371      C2374   1.563       .  S
C2371      C2420   1.602       .  S
C2372      C2376   1.548       .  S
C2372      C2378   1.533       .  S
C2372      C2377   1.554       .  S
C2372      C2431   1.603       .  S
C2373      C2381   1.382       .  A
C2373      C2376   1.412       .  A
C2374      C2385   1.387       .  A
C2374      C2377   1.418       .  A
C2375      C2389   1.373       .  A
C2375      C2378   1.398       .  A
C2376      C2379   1.377       .  A
C2377      C2383   1.379       .  A
C2378      C2386   1.371       .  A
C2379      N2380   1.361       .  A
C2379      H2392   1.082       .  S
N2380      C2381   1.363       .  A
N2380      C2518   1.456       .  S
C2381      H2382   1.081       .  S
C2383      N2384   1.357       .  A
C2383      H2393   1.081       .  S
N2384      C2385   1.358       .  A
N2384      C2490   1.444       .  S
C2385      H2391   1.082       .  S
C2386      N2387   1.354       .  A
C2386      H2388   1.083       .  S
N2387      C2389   1.351       .  A
N2387      C2501   1.424       .  S
C2389      H2390   1.082       .  S
C2394      C2396   1.556       .  S
C2394      C2398   1.542       .  S
C2394      C2397   1.561       .  S
C2394      C2434   1.601       .  S
C2395      C2399   1.557       .  S
C2395      C2401   1.542       .  S
C2395      C2400   1.542       .  S
C2395      C2417   1.603       .  S
C2396      C2404   1.385       .  A
C2396      C2399   1.416       .  A
C2397      C2408   1.392       .  A
C2397      C2400   1.404       .  A
C2398      C2412   1.379       .  A
C2398      C2401   1.406       .  A
C2399      C2402   1.382       .  A
C2400      C2406   1.369       .  A
C2401      C2409   1.379       .  A
C2402      N2403   1.358       .  A
C2402      H2415   1.081       .  S
N2403      C2404   1.358       .  A
N2403      C2476   1.448       .  S
C2404      H2405   1.082       .  S
C2406      N2407   1.355       .  A
C2406      H2416   1.080       .  S
N2407      C2408   1.369       .  A
N2407      C2448   1.458       .  S
C2408      H2414   1.081       .  S
C2409      N2410   1.360       .  A
C2409      H2411   1.082       .  S
N2410      C2412   1.357       .  A
N2410      C2462   1.441       .  S
C2412      H2413   1.082       .  S
C2417      C2418   1.427       .  A
C2417      C2422   1.422       .  A
C2418      C2419   1.436       .  A
C2418      C2423   1.452       .  S
C2419      C2420   1.430       .  A
C2419      C2426   1.449       .  S
C2420      C2421   1.433       .  A
C2421      C2422   1.441       .  A
C2421      C2424   1.449       .  S
C2422      C2425   1.449       .  S
C2423      N2430   1.158       .  T
C2424      N2429   1.158       .  T
C2425      N2427   1.158       .  T
C2426      N2428   1.157       .  T
C2431      C2432   1.431       .  A
C2431      C2436   1.430       .  A
C2432      C2433   1.439   1_556  A
C2432      C2437   1.445       .  S
C2433      C2440   1.449       .  S
C2435      C2436   1.436   1_554  A
C2436      C2439   1.451       .  S
C2437      N2444   1.156       .  T
C2438      N2443   1.156       .  T
C2439      N2441   1.158       .  T
C2440      N2442   1.157       .  T
C2445      C2446   1.409       .  A
C2445      C2450   1.408       .  A
C2446      C2447   1.413       .  A
C2446      C2451   1.448       .  S
C2447      C2448   1.418       .  A
C2447      C2454   1.447       .  S
C2448      C2449   1.423       .  A
C2449      C2450   1.414       .  A
C2449      C2452   1.451       .  S
C2450      C2453   1.452       .  S
C2451      N2458   1.155       .  T
C2452      N2457   1.158       .  T
C2453      N2455   1.157       .  T
C2454      N2456   1.157       .  T
C2459      C2460   1.422       .  A
C2459      C2464   1.424       .  A
C2460      C2461   1.417       .  A
C2460      C2465   1.447       .  S
C2461      C2462   1.406       .  A
C2461      C2468   1.449       .  S
C2462      C2463   1.403       .  A
C2463      C2464   1.410       .  A
C2463      C2466   1.449       .  S
C2464      C2467   1.449       .  S
C2465      N2472   1.157       .  T
C2466      N2471   1.157       .  T
C2467      N2469   1.156       .  T
C2468      N2470   1.157       .  T
C2473      C2474   1.424       .  A
C2473      C2478   1.420       .  A
C2474      C2475   1.413       .  A
C2474      C2479   1.451       .  S
C2475      C2476   1.408       .  A
C2475      C2482   1.451       .  S
C2476      C2477   1.411       .  A
C2477      C2478   1.415       .  A
C2477      C2480   1.447       .  S
C2478      C2481   1.453       .  S
C2480      N2485   1.156       .  T
C2481      N3363   1.158       .  T
C2482      N2484   1.157       .  T
N2483      C3361   1.157   1_545  T
C2487      C2488   1.427       .  A
C2487      C2492   1.428       .  A
C2488      C2489   1.410       .  A
C2488      C2493   1.451       .  S
C2489      C2490   1.403       .  A
C2489      C2496   1.450       .  S
C2490      C2491   1.405       .  A
C2491      C2492   1.421       .  A
C2491      C2494   1.449       .  S
C2492      C2495   1.450       .  S
C2493      N2500   1.157       .  T
C2494      N2499   1.157       .  T
C2496      N2498   1.157       .  T
C2501      C2502   1.401       .  A
C2501      C2506   1.403       .  A
C2502      C2503   1.402       .  A
C2502      C2507   1.449       .  S
C2503      C2504   1.416       .  A
C2503      C2510   1.450       .  S
C2504      C2505   1.417       .  A
C2505      C2506   1.406       .  A
C2505      C3388   1.450       .  S
C2506      C2509   1.449       .  S
C2507      N2514   1.157       .  T
C2508      C3385   1.450   1_545  S
C2508      N2513   1.157       .  T
C2509      N3391   1.157       .  T
C2510      N2512   1.157       .  T
N2511      C3389   1.157       .  T
C2515      C2516   1.420       .  A
C2515      C2520   1.417       .  A
C2516      C2517   1.412       .  A
C2516      C2521   1.451       .  S
C2517      C2518   1.416       .  A
C2517      C2524   1.450       .  S
C2518      C2519   1.416       .  A
C2519      C2520   1.417       .  A
C2519      C2522   1.450       .  S
C2520      C2523   1.450       .  S
C2521      N2528   1.156       .  T
C2522      N2527   1.158       .  T
C2524      N2526   1.157       .  T
C2529      C2530   1.417       .  A
C2529      C2534   1.422       .  A
C2530      C2531   1.411       .  A
C2530      C2535   1.450       .  S
C2531      C2532   1.407       .  A
C2531      C2538   1.448       .  S
C2532      C2533   1.397       .  A
C2533      C2534   1.399       .  A
C2533      C2536   1.449       .  S
C2534      C2537   1.448       .  S
C2535      N3422   1.157   1_545  T
C2536      N2541   1.157       .  T
C2538      N2540   1.157       .  T
N2542      C3415   1.158       .  T
C2543      C2544   1.409       .  A
C2543      C2548   1.412       .  A
C2544      C2545   1.412       .  A
C2544      C2549   1.448       .  S
C2545      C2546   1.413       .  A
C2545      C2552   1.450       .  S
C2546      C2547   1.409       .  A
C2547      C2548   1.411       .  A
C2547      C2550   1.450       .  S
C2548      C2551   1.448       .  S
C2549      N2556   1.157       .  T
C2550      N2555   1.158       .  T
C2551      N2553   1.157       .  T
C2552      N2554   1.157       .  T
C2557      C2558   1.405       .  A
C2557      C2562   1.405       .  A
C2558      C2559   1.410       .  A
C2558      C2563   1.449       .  S
C2559      C2560   1.423       .  A
C2559      C2566   1.451       .  S
C2560      C2561   1.422       .  A
C2561      C2562   1.416       .  A
C2561      C2564   1.445       .  S
C2562      C2565   1.450       .  S
C2563      N2570   1.157       .  T
C2564      N2569   1.156   1_545  T
C2565      N2567   1.157       .  T
C2566      N2568   1.156       .  T
C2571      C2572   1.414       .  A
C2571      C2576   1.409       .  A
C2573      C2580   1.448       .  S
C2574      C2575   1.411       .  A
C2575      C2576   1.409       .  A
C2575      C2578   1.449       .  S
C2576      C2579   1.451       .  S
C2577      N3464   1.157   1_545  T
C2578      N2583   1.157       .  T
C2579      N2581   1.157       .  T
C2580      N2582   1.157       .  T
N2584      C3457   1.157       .  T
C2585      C2590   1.400       .  A
C2586      C2591   1.449       .  S
C2587      C2588   1.428   1_554  A
C2588      C2589   1.431       .  A
C2589      C2590   1.409   1_556  A
C2589      C2592   1.453       .  S
C2590      C2593   1.450       .  S
C2591      N2598   1.157       .  T
C2592      N2597   1.158       .  T
C2593      N2595   1.157       .  T
C2599      C2600   1.410       .  A
C2600      C2601   1.408       .  A
C2600      C2605   1.451       .  S
C2601      C2602   1.414       .  A
C2601      C2608   1.450       .  S
C2603      C2604   1.405       .  A
C2603      C2606   1.447       .  S
C2604      C2607   1.447       .  S
C2605      N2612   1.157       .  T
C2606      N2611   1.156       .  T
C2607      N2609   1.155       .  T
C2608      N2610   1.157       .  T
C2613      C2614   1.408       .  A
C2613      C2618   1.434       .  A
C2614      C2615   1.411       .  A
C2614      C2619   1.442       .  S
C2615      C2616   1.417       .  A
C2615      C2622   1.443       .  S
C2616      C2617   1.429       .  A
C2617      C2618   1.447       .  A
C2617      C2620   1.444       .  S
C2618      C2621   1.445       .  S
C2619      N2626   1.157       .  T
C2620      N2625   1.156       .  T
C2621      N2623   1.156       .  T
C2622      N2624   1.157       .  T
C2627      C2628   1.431       .  A
C2627      C2632   1.434       .  A
C2628      C2629   1.439       .  A
C2628      C2633   1.448       .  S
C2629      C2630   1.423       .  A
C2629      C2636   1.448       .  S
C2630      C2631   1.421       .  A
C2631      C2632   1.436       .  A
C2631      C2634   1.452       .  S
C2632      C2635   1.445       .  S
C2633      N2640   1.158       .  T
C2634      N2639   1.158       .  T
C2635      N2637   1.155       .  T
C2636      N2638   1.157       .  T
C2641      C2643   1.544   1_554  S
C2641      C2645   1.537       .  S
C2641      C2644   1.545       .  S
C2641      C3070   1.594       .  S
C2642      C2646   1.564       .  S
C2642      C2648   1.540       .  S
C2642      C2647   1.540       .  S
C2642      C3053   1.597       .  S
C2643      C2651   1.376   1_556  A
C2643      C3086   1.416       .  A
C2644      C2655   1.380       .  A
C2644      C3087   1.409   1_554  A
C2645      C2659   1.375       .  A
C2645      C3088   1.405   1_554  A
C2646      C3083   1.415       .  A
C2646      C2649   1.385       .  A
C2647      C3084   1.407       .  A
C2647      C2653   1.369       .  A
C2648      C3085   1.406       .  A
C2648      C2656   1.375       .  A
C2649      N2650   1.354       .  A
C2649      H2662   1.077       .  S
N2650      C3091   1.352       .  A
N2650      C3014   1.439       .  S
C2651      N3090   1.351   1_554  A
C2651      H2652   1.082       .  S
C2653      N3094   1.357       .  A
C2653      H2663   1.082       .  S
N2654      C3093   1.356       .  A
N2654      C2655   1.359   1_556  A
N2654      C3482   1.445       .  S
C2655      H2661   1.082       .  S
C2656      N3097   1.358       .  A
C2656      H2658   1.082       .  S
N2657      C3096   1.359       .  A
N2657      C2659   1.354   1_556  A
N2657      C3465   1.436       .  S
C2659      H2660   1.082       .  S
C2664      C2666   1.550       .  S
C2664      C2668   1.559       .  S
C2664      C2667   1.534       .  S
C2664      C3067   1.607       .  S
C2665      C2669   1.556       .  S
C2665      C2671   1.550       .  S
C2665      C2670   1.554       .  S
C2665      C3056   1.598       .  S
C2666      C2674   1.382       .  A
C2666      C2669   1.411       .  A
C2667      C2678   1.369       .  A
C2667      C2670   1.405       .  A
C2668      C2682   1.385       .  A
C2668      C2671   1.414       .  A
C2669      C2672   1.382       .  A
C2670      C2676   1.390       .  A
C2671      C2679   1.382       .  A
C2672      N2673   1.350       .  A
C2672      H2685   1.079       .  S
N2673      C2674   1.354       .  A
N2673      C2972   1.436       .  S
C2674      H2675   1.082       .  S
C2676      N2677   1.365       .  A
C2676      H2686   1.082       .  S
N2677      C2678   1.353       .  A
N2677      C2983   1.445       .  S
C2678      H2684   1.083       .  S
C2679      N2680   1.359       .  A
C2679      H2681   1.082       .  S
N2680      C2682   1.360       .  A
N2680      C2997   1.446       .  S
C2682      H2683   1.082       .  S
O2687     Zr2699   2.446       .  S
O2687      C2689   1.287       .  A
O2688     Zr2725   2.411       .  S
O2688      C2689   1.282       .  A
C2689      C2955   1.497       .  S
O2690     Zr2702   2.433       .  S
O2690      C2692   1.287       .  A
O2691      C2692   1.293       .  A
C2692      C2927   1.513       .  S
O2693     Zr2702   2.416       .  S
O2693      C2695   1.282       .  A
O2694      C2695   1.288       .  A
C2695      C3039   1.471       .  S
O2696     Zr2699   2.362       .  S
O2697     Zr2726   2.393       .  S
O2697      C2698   1.269       .  A
O2700      H2743   0.990       .  S
O2701      H2742   0.989       .  S
Zr2702     O2703   2.437       .  S
Zr2702     O2704   2.435       .  S
Zr2702     O2706   2.345       .  S
Zr2702     O2705   2.387       .  S
Zr2702     O2730   2.348       .  S
Zr2702     O2732   2.379       .  S
O2703      H2744   0.990       .  S
O2703      H2747   0.989       .  S
O2704      H2737   0.990       .  S
O2706      H2733   0.968       .  S
O2707     Zr2719   2.434       .  S
O2707      C2709   1.287       .  A
O2708      C2709   1.287       .  A
C2709      C2944   1.489       .  S
O2710     Zr3162   2.392   1_554  S
O2711     Zr3165   2.362   1_554  S
O2713     Zr2722   2.451       .  S
O2713      C2715   1.287       .  A
O2714     Zr2726   2.437       .  S
O2714      C2715   1.287       .  A
C2715      C3011   1.482       .  S
O2716     Zr2719   2.426       .  S
O2716      C2718   1.284       .  A
O2717      C2718   1.288       .  A
C2718      C3028   1.511       .  S
Zr2719     O2720   2.433       .  S
Zr2719     O2721   2.429       .  S
Zr2719     O2727   2.379   1_565  S
Zr2719     O2728   2.342       .  S
Zr2719     O2731   2.385       .  S
Zr2719     O2729   2.330       .  S
O2720      H2740   0.990       .  S
O2720      H2745   0.990       .  S
O2721      H2741   0.990       .  S
Zr2722     O3150   2.391       .  S
O2723      H2739   0.990       .  S
O2724      H2738   0.989   1_554  S
Zr2725     O3151   2.360       .  S
O2727      H2735   0.965   1_545  S
O2730      H3174   0.963       .  S
O2731      H2736   0.965       .  S
H2734      O3170   0.963       .  S
O2749     Zr2761   2.460   1_565  S
O2749      C2751   1.289       .  A
O2750     Zr2787   2.401       .  S
O2750      C2751   1.279       .  A
C2751      C2913   1.500       .  S
O2752     Zr2764   2.461       .  S
O2752      C2754   1.290       .  A
O2753      C2754   1.285       .  A
C2754      C2885   1.485       .  S
O2755     Zr2764   2.430       .  S
O2755      C2757   1.286       .  A
O2756      C2757   1.293       .  A
C2757      C3000   1.513       .  S
O2758     Zr2761   2.425       .  S
O2759     Zr2788   2.386   1_455  S
O2759      C2760   1.266       .  A
O2762      H2805   0.990       .  S
O2763      H2804   0.990       .  S
Zr2764     O2765   2.439       .  S
Zr2764     O2766   2.436       .  S
Zr2764     O2768   2.341       .  S
Zr2764     O2767   2.391       .  S
Zr2764     O2792   2.369       .  S
Zr2764     O2794   2.381       .  S
O2765      H2806   0.990       .  S
O2765      H2809   0.990       .  S
O2766      H2799   0.990       .  S
O2768      H2795   0.966       .  S
O2769     Zr2781   2.418       .  S
O2769      C2771   1.283       .  A
O2770      C2771   1.290   1_545  A
C2771      C2899   1.508       .  S
O2772     Zr2784   2.423       .  S
O2773     Zr2787   2.406       .  S
O2775     Zr2784   2.470       .  S
O2775      C2777   1.291       .  A
O2776     Zr2788   2.388       .  S
O2776      C2777   1.279       .  A
C2777      C2969   1.497       .  S
O2778     Zr2781   2.429       .  S
O2778      C2780   1.284       .  A
O2779      C2780   1.288       .  A
C2780      C2986   1.480       .  S
Zr2781     O2782   2.436       .  S
Zr2781     O2783   2.436       .  S
Zr2781     O2789   2.404       .  S
Zr2781     O2790   2.316       .  S
Zr2781     O2793   2.392       .  S
Zr2781     O2791   2.322       .  S
O2782      H2802   0.990       .  S
O2782      H2807   0.990       .  S
O2783      H2803   0.990       .  S
O2785      H2801   0.990       .  S
O2786      H2800   0.990       .  S
O2789      H2797   0.965       .  S
O2792      H2796   0.961       .  S
O2793      H2798   0.966       .  S
C2811      C2813   1.556       .  S
C2811      C2815   1.526       .  S
C2811      C2814   1.565       .  S
C2811      C2860   1.605       .  S
C2812      C2816   1.548       .  S
C2812      C2818   1.532       .  S
C2812      C2817   1.551       .  S
C2812      C2871   1.604       .  S
C2813      C2821   1.379       .  A
C2813      C2816   1.412       .  A
C2814      C2825   1.388       .  A
C2814      C2817   1.419       .  A
C2815      C2829   1.372       .  A
C2815      C2818   1.399       .  A
C2816      C2819   1.375       .  A
C2817      C2823   1.378       .  A
C2818      C2826   1.369       .  A
C2819      N2820   1.360       .  A
C2819      H2832   1.082       .  S
N2820      C2821   1.363       .  A
N2820      C2958   1.452       .  S
C2821      H2822   1.081       .  S
C2823      N2824   1.356       .  A
C2823      H2833   1.081       .  S
N2824      C2825   1.359       .  A
N2824      C2930   1.443       .  S
C2825      H2831   1.082       .  S
C2826      N2827   1.354       .  A
C2826      H2828   1.083       .  S
N2827      C2829   1.352       .  A
N2827      C2941   1.424       .  S
C2829      H2830   1.082       .  S
C2834      C2836   1.552       .  S
C2834      C2838   1.539       .  S
C2834      C2837   1.563       .  S
C2834      C2874   1.602       .  S
C2835      C2839   1.554       .  S
C2835      C2841   1.541       .  S
C2835      C2840   1.545       .  S
C2835      C2857   1.606       .  S
C2836      C2844   1.381       .  A
C2836      C2839   1.416       .  A
C2837      C2848   1.393       .  A
C2837      C2840   1.407       .  A
C2838      C2852   1.377       .  A
C2838      C2841   1.407       .  A
C2839      C2842   1.378       .  A
C2840      C2846   1.370       .  A
C2841      C2849   1.377       .  A
C2842      N2843   1.357       .  A
C2842      H2855   1.081       .  S
N2843      C2844   1.356       .  A
N2843      C2916   1.442       .  S
C2844      H2845   1.082       .  S
C2846      N2847   1.356       .  A
C2846      H2856   1.081       .  S
N2847      C2848   1.368       .  A
N2847      C2888   1.457       .  S
C2848      H2854   1.081       .  S
C2849      N2850   1.359       .  A
C2849      H2851   1.082       .  S
N2850      C2852   1.355       .  A
N2850      C2902   1.437       .  S
C2852      H2853   1.082       .  S
C2857      C2858   1.426       .  A
C2857      C2862   1.424       .  A
C2858      C2859   1.438       .  A
C2858      C2863   1.451       .  S
C2859      C2860   1.430       .  A
C2859      C2866   1.449       .  S
C2860      C2861   1.434       .  A
C2861      C2862   1.442       .  A
C2861      C2864   1.450       .  S
C2862      C2865   1.449       .  S
C2863      N2870   1.157       .  T
C2864      N2869   1.158       .  T
C2865      N2867   1.158       .  T
C2866      N2868   1.157       .  T
C2871      C2872   1.432       .  A
C2871      C2876   1.429       .  A
C2872      C2873   1.442       .  A
C2872      C2877   1.446       .  S
C2873      C3314   1.422       .  A
C2873      C2880   1.449       .  S
C2874      C3313   1.425       .  A
C2874      C3315   1.427       .  A
C2875      C3314   1.425       .  A
C2875      C2876   1.436       .  A
C2875      C3318   1.448       .  S
C2876      C2879   1.450       .  S
C2877      N2884   1.157       .  T
C2878      C3315   1.447       .  S
C2878      N2883   1.156       .  T
C2879      N2881   1.157       .  T
C2880      N2882   1.157       .  T
C2885      C2886   1.410       .  A
C2885      C2890   1.408       .  A
C2886      C2887   1.415       .  A
C2886      C2891   1.450       .  S
C2887      C2888   1.418       .  A
C2887      C2894   1.446       .  S
C2888      C2889   1.420       .  A
C2889      C2890   1.412       .  A
C2889      C2892   1.450       .  S
C2890      C2893   1.452       .  S
C2891      N2898   1.156       .  T
C2892      N2897   1.157       .  T
C2893      N2895   1.157       .  T
C2894      N2896   1.157       .  T
C2899      C2900   1.424       .  A
C2899      C2904   1.426       .  A
C2900      C2901   1.415       .  A
C2900      C2905   1.448   1_565  S
C2901      C2902   1.404       .  A
C2901      C2908   1.450       .  S
C2902      C2903   1.401       .  A
C2903      C2904   1.409       .  A
C2903      C2906   1.450       .  S
C2904      C2907   1.450       .  S
C2905      N2912   1.157       .  T
C2906      N2911   1.157       .  T
C2907      N2909   1.156       .  T
C2908      N2910   1.157       .  T
C2913      C2914   1.425       .  A
C2913      C2918   1.418       .  A
C2914      C2915   1.409       .  A
C2914      C2919   1.451       .  S
C2915      C2916   1.406       .  A
C2915      C2922   1.451       .  S
C2916      C2917   1.410       .  A
C2917      C2918   1.412       .  A
C2917      C2920   1.447       .  S
C2918      C2921   1.453       .  S
C2920      N2925   1.156       .  T
C2922      N2924   1.157       .  T
C2927      C2928   1.428       .  A
C2927      C2932   1.425       .  A
C2928      C2929   1.410       .  A
C2928      C2933   1.452       .  S
C2929      C2930   1.403       .  A
C2929      C2936   1.450       .  S
C2930      C2931   1.405       .  A
C2931      C2932   1.419       .  A
C2931      C2934   1.448       .  S
C2932      C2935   1.450       .  S
C2933      N2940   1.157       .  T
C2934      N2939   1.157       .  T
C2936      N2938   1.157       .  T
C2941      C2942   1.398       .  A
C2941      C2946   1.401       .  A
C2942      C2943   1.403       .  A
C2942      C2947   1.451       .  S
C2943      C2944   1.422       .  A
C2943      C2950   1.449       .  S
C2944      C2945   1.421       .  A
C2945      C2946   1.408       .  A
C2946      C2949   1.450       .  S
C2947      N2954   1.157       .  T
C2948      N2953   1.157       .  T
C2950      N2952   1.156       .  T
C2955      C2956   1.417       .  A
C2955      C2960   1.417       .  A
C2956      C2957   1.408       .  A
C2956      C2961   1.452       .  S
C2957      C2958   1.416       .  A
C2957      C2964   1.449       .  S
C2958      C2959   1.416       .  A
C2959      C2960   1.415       .  A
C2959      C2962   1.451       .  S
C2960      C2963   1.451       .  S
C2961      N2968   1.157       .  T
C2962      N2967   1.158       .  T
C2964      N2966   1.156       .  T
C2969      C2970   1.418       .  A
C2969      C2974   1.423       .  A
C2970      C2971   1.415       .  A
C2970      C2975   1.450       .  S
C2971      C2972   1.408       .  A
C2971      C2978   1.448       .  S
C2972      C2973   1.399       .  A
C2973      C2974   1.403       .  A
C2973      C2976   1.449       .  S
C2974      C2977   1.447       .  S
C2976      N2981   1.157       .  T
C2978      N2980   1.157       .  T
C2983      C2984   1.411       .  A
C2983      C2988   1.416       .  A
C2984      C2985   1.411       .  A
C2984      C2989   1.446       .  S
C2985      C2986   1.411       .  A
C2985      C2992   1.449       .  S
C2986      C2987   1.407       .  A
C2987      C2988   1.411       .  A
C2987      C2990   1.451       .  S
C2988      C2991   1.447       .  S
C2989      N2996   1.156       .  T
C2990      N2995   1.158       .  T
C2991      N2993   1.156       .  T
C2992      N2994   1.156       .  T
C2997      C2998   1.407       .  A
C2997      C3002   1.407       .  A
C2998      C2999   1.413       .  A
C2998      C3003   1.449       .  S
C2999      C3000   1.425       .  A
C2999      C3006   1.451       .  S
C3000      C3001   1.422       .  A
C3001      C3002   1.418       .  A
C3001      C3004   1.445       .  S
C3002      C3005   1.449       .  S
C3003      N3010   1.157       .  T
C3004      N3009   1.156       .  T
C3005      N3007   1.157       .  T
C3006      N3008   1.157       .  T
C3011      C3012   1.417       .  A
C3011      C3016   1.410       .  A
C3012      C3453   1.413       .  A
C3012      C3457   1.450       .  S
C3013      C3452   1.411       .  A
C3013      C3454   1.405       .  A
C3013      C3020   1.448       .  S
C3014      C3453   1.405       .  A
C3014      C3015   1.411       .  A
C3015      C3016   1.410       .  A
C3015      C3018   1.450       .  S
C3016      C3019   1.450       .  S
C3017      C3452   1.451       .  S
C3018      N3023   1.157       .  T
C3019      N3021   1.157   1_655  T
C3020      N3022   1.157       .  T
C3025      C3466   1.401       .  A
C3025      C3030   1.400       .  A
C3025      N3097   1.436       .  S
C3026      C3465   1.401   1_554  A
C3026      C3467   1.414       .  A
C3026      C3031   1.450       .  S
C3027      C3466   1.413       .  A
C3027      C3028   1.429       .  A
C3027      C3474   1.450       .  S
C3028      C3029   1.431       .  A
C3029      C3030   1.408       .  A
C3029      C3032   1.452       .  S
C3030      C3033   1.450       .  S
C3031      N3038   1.157       .  T
C3032      N3037   1.158       .  T
C3033      N3035   1.157       .  T
C3034      C3467   1.450       .  S
C3039      C3040   1.410       .  A
C3039      C3484   1.407       .  A
C3040      C3041   1.406       .  A
C3040      C3045   1.452       .  S
C3041      C3042   1.414       .  A
C3041      C3048   1.450       .  S
C3042      C3483   1.415       .  A
C3042      N3094   1.444       .  S
C3043      C3482   1.414   1_554  A
C3043      C3044   1.406       .  A
C3043      C3046   1.448       .  S
C3044      C3479   1.406   1_554  A
C3044      C3047   1.446       .  S
C3045      N3052   1.157       .  T
C3046      N3051   1.157       .  T
C3047      N3049   1.155       .  T
C3048      N3050   1.157       .  T
C3053      C3054   1.411       .  A
C3053      C3058   1.434       .  A
C3054      C3055   1.409       .  A
C3054      C3059   1.442       .  S
C3055      C3056   1.417       .  A
C3055      C3062   1.442       .  S
C3056      C3057   1.427       .  A
C3057      C3058   1.446       .  A
C3057      C3060   1.443       .  S
C3058      C3061   1.445       .  S
C3059      N3066   1.157       .  T
C3060      N3065   1.155       .  T
C3061      N3063   1.156       .  T
C3062      N3064   1.157       .  T
C3067      C3068   1.431       .  A
C3067      C3072   1.434       .  A
C3068      C3069   1.440       .  A
C3068      C3073   1.448       .  S
C3069      C3070   1.426       .  A
C3069      C3076   1.450       .  S
C3070      C3071   1.420       .  A
C3071      C3072   1.434       .  A
C3071      C3074   1.452       .  S
C3072      C3075   1.443       .  S
C3073      N3080   1.158       .  T
C3074      N3079   1.158       .  T
C3075      N3077   1.155       .  T
C3076      N3078   1.157       .  T
C3081      C3083   1.547       .  S
C3081      C3085   1.539       .  S
C3081      C3084   1.544       .  S
C3081      C3510   1.592       .  S
C3082      C3086   1.564       .  S
C3082      C3088   1.541       .  S
C3082      C3087   1.539       .  S
C3082      C3493   1.595       .  S
C3083      C3091   1.380       .  A
C3084      C3095   1.379       .  A
C3085      C3099   1.377       .  A
C3086      C3089   1.384       .  A
C3087      C3093   1.370       .  A
C3088      C3096   1.377       .  A
C3089      N3090   1.355       .  A
C3089      H3102   1.077       .  S
N3090      C3454   1.435       .  S
C3091      H3092   1.081       .  S
C3093      H3103   1.082       .  S
N3094      C3095   1.358       .  A
C3095      H3101   1.082       .  S
C3096      H3098   1.082       .  S
N3097      C3099   1.356       .  A
C3099      H3100   1.082       .  S
C3104      C3106   1.550       .  S
C3104      C3108   1.555       .  S
C3104      C3107   1.533       .  S
C3104      C3507   1.604       .  S
C3105      C3109   1.556       .  S
C3105      C3111   1.545       .  S
C3105      C3110   1.555       .  S
C3105      C3496   1.595       .  S
C3106      C3114   1.382       .  A
C3106      C3109   1.411       .  A
C3107      C3118   1.367       .  A
C3107      C3110   1.404       .  A
C3108      C3122   1.382       .  A
C3108      C3111   1.414       .  A
C3109      C3112   1.381       .  A
C3110      C3116   1.392       .  A
C3111      C3119   1.377       .  A
C3112      N3113   1.349       .  A
C3112      H3125   1.079       .  S
N3113      C3114   1.356       .  A
N3113      C3412   1.434       .  S
C3114      H3115   1.082       .  S
C3116      N3117   1.366       .  A
C3116      H3126   1.082       .  S
N3117      C3118   1.352       .  A
N3117      C3423   1.446       .  S
C3118      H3124   1.083       .  S
C3119      N3120   1.356       .  A
C3119      H3121   1.082       .  S
N3120      C3122   1.359       .  A
N3120      C3437   1.439       .  S
C3122      H3123   1.082       .  S
O3127     Zr3139   2.454       .  S
O3127      C3129   1.289       .  A
O3128     Zr3165   2.406       .  S
O3128      C3129   1.281       .  A
C3129      C3395   1.496       .  S
O3130     Zr3142   2.438       .  S
O3130      C3132   1.288       .  A
O3131      C3132   1.292       .  A
C3132      C3367   1.511       .  S
O3133     Zr3142   2.422       .  S
O3133      C3135   1.283       .  A
O3134      C3135   1.288       .  A
C3135      C3479   1.473       .  S
O3136     Zr3139   2.368       .  S
O3137     Zr3166   2.393       .  S
O3137      C3138   1.269       .  A
O3140      H3183   0.990       .  S
O3141      H3182   0.990       .  S
Zr3142     O3143   2.438       .  S
Zr3142     O3144   2.435       .  S
Zr3142     O3146   2.347       .  S
Zr3142     O3145   2.386       .  S
Zr3142     O3170   2.355       .  S
Zr3142     O3172   2.382       .  S
O3143      H3184   0.990       .  S
O3143      H3187   0.990       .  S
O3144      H3177   0.990       .  S
O3146      H3173   0.967       .  S
O3147     Zr3159   2.438       .  S
O3147      C3149   1.288       .  A
O3148      C3149   1.285       .  A
C3149      C3384   1.486       .  S
O3153     Zr3162   2.433       .  S
O3153      C3155   1.283       .  A
O3154     Zr3166   2.439       .  S
O3154      C3155   1.287       .  A
C3155      C3451   1.476       .  S
O3156     Zr3159   2.434       .  S
O3156      C3158   1.285       .  A
O3157      C3158   1.287       .  A
C3158      C3468   1.511       .  S
Zr3159     O3160   2.436       .  S
Zr3159     O3161   2.428       .  S
Zr3159     O3167   2.379       .  S
Zr3159     O3168   2.336       .  S
Zr3159     O3171   2.387       .  S
Zr3159     O3169   2.336       .  S
O3160      H3180   0.990   1_556  S
O3160      H3185   0.990       .  S
O3161      H3181   0.990       .  S
O3163      H3179   0.990       .  S
O3164      H3178   0.990       .  S
O3167      H3175   0.965       .  S
O3171      H3176   0.965       .  S
O3189     Zr3201   2.462   1_565  S
O3189      C3191   1.290       .  A
O3190     Zr3227   2.397       .  S
O3190      C3191   1.278       .  A
C3191      C3353   1.499       .  S
O3192     Zr3204   2.457       .  S
O3192      C3194   1.289       .  A
O3193      C3194   1.285       .  A
C3194      C3325   1.487       .  S
O3195     Zr3204   2.427       .  S
O3195      C3197   1.285       .  A
O3196      C3197   1.293       .  A
C3197      C3440   1.506       .  S
O3198     Zr3201   2.419       .  S
O3199     Zr3228   2.389   1_455  S
O3199      C3200   1.267       .  A
O3202      H3245   0.989       .  S
O3203      H3244   0.990       .  S
Zr3204     O3205   2.440       .  S
Zr3204     O3206   2.437       .  S
Zr3204     O3208   2.350       .  S
Zr3204     O3207   2.393       .  S
Zr3204     O3232   2.361       .  S
Zr3204     O3234   2.372       .  S
O3205      H3246   0.990       .  S
O3205      H3249   0.990       .  S
O3206      H3239   0.990       .  S
O3208      H3235   0.966       .  S
O3209     Zr3221   2.417       .  S
O3209      C3211   1.282       .  A
O3210      C3211   1.290   1_545  A
C3211      C3339   1.506       .  S
O3212     Zr3224   2.432       .  S
O3213     Zr3227   2.391       .  S
O3215     Zr3224   2.465       .  S
O3215      C3217   1.291       .  A
O3216     Zr3228   2.388       .  S
O3216      C3217   1.279       .  A
C3217      C3409   1.493       .  S
O3218     Zr3221   2.439       .  S
O3218      C3220   1.285       .  A
O3219      C3220   1.288       .  A
C3220      C3426   1.485       .  S
Zr3221     O3222   2.437       .  S
Zr3221     O3223   2.436       .  S
Zr3221     O3229   2.405       .  S
Zr3221     O3230   2.321       .  S
Zr3221     O3233   2.390       .  S
Zr3221     O3231   2.329       .  S
O3222      H3242   0.990       .  S
O3222      H3247   0.990       .  S
O3223      H3243   0.990       .  S
O3225      H3241   0.990       .  S
O3226      H3240   0.990       .  S
O3229      H3237   0.964       .  S
O3232      H3236   0.961       .  S
O3233      H3238   0.966       .  S
C3251      C3253   1.556       .  S
C3251      C3255   1.527       .  S
C3251      C3254   1.565       .  S
C3251      C3300   1.600       .  S
C3252      C3256   1.543       .  S
C3252      C3258   1.530       .  S
C3252      C3257   1.552       .  S
C3252      C3311   1.601       .  S
C3253      C3261   1.380       .  A
C3253      C3256   1.410       .  A
C3254      C3265   1.388       .  A
C3254      C3257   1.419       .  A
C3255      C3269   1.374       .  A
C3255      C3258   1.398       .  A
C3256      C3259   1.372       .  A
C3257      C3263   1.377       .  A
C3258      C3266   1.368       .  A
C3259      N3260   1.359       .  A
C3259      H3272   1.082       .  S
N3260      C3261   1.363       .  A
N3260      C3398   1.451       .  S
C3261      H3262   1.081       .  S
C3263      N3264   1.357       .  A
C3263      H3273   1.082       .  S
N3264      C3265   1.359       .  A
N3264      C3370   1.443       .  S
C3265      H3271   1.082       .  S
C3266      N3267   1.353       .  A
C3266      H3268   1.083       .  S
N3267      C3269   1.352       .  A
N3267      C3381   1.424       .  S
C3269      H3270   1.082       .  S
C3274      C3276   1.550       .  S
C3274      C3278   1.541       .  S
C3274      C3277   1.563       .  S
C3274      C3314   1.598       .  S
C3275      C3279   1.554       .  S
C3275      C3281   1.541       .  S
C3275      C3280   1.540       .  S
C3275      C3297   1.598       .  S
C3276      C3284   1.379       .  A
C3276      C3279   1.414       .  A
C3277      C3288   1.393       .  A
C3277      C3280   1.404       .  A
C3278      C3292   1.379       .  A
C3278      C3281   1.405       .  A
C3279      C3282   1.379       .  A
C3280      C3286   1.368       .  A
C3281      C3289   1.378       .  A
C3282      N3283   1.357       .  A
C3282      H3295   1.081       .  S
N3283      C3284   1.355       .  A
N3283      C3356   1.442       .  S
C3284      H3285   1.082       .  S
C3286      N3287   1.354       .  A
C3286      H3296   1.080       .  S
N3287      C3288   1.371       .  A
N3287      C3328   1.458       .  S
C3288      H3294   1.080       .  S
C3289      N3290   1.359       .  A
C3289      H3291   1.082       .  S
N3290      C3292   1.357       .  A
N3290      C3342   1.440       .  S
C3292      H3293   1.082       .  S
C3297      C3298   1.425       .  A
C3297      C3302   1.421       .  A
C3298      C3299   1.434       .  A
C3298      C3303   1.452       .  S
C3299      C3300   1.430       .  A
C3299      C3306   1.449       .  S
C3300      C3301   1.435       .  A
C3301      C3302   1.439       .  A
C3301      C3304   1.450       .  S
C3302      C3305   1.449       .  S
C3303      N3310   1.157       .  T
C3304      N3309   1.158       .  T
C3305      N3307   1.158       .  T
C3306      N3308   1.157       .  T
C3311      C3312   1.427       .  A
C3311      C3316   1.428       .  A
C3312      C3313   1.441   1_556  A
C3312      C3317   1.445       .  S
C3313      C3320   1.448       .  S
C3315      C3316   1.437   1_554  A
C3316      C3319   1.451       .  S
C3317      N3324   1.156       .  T
C3318      N3323   1.157       .  T
C3319      N3321   1.158       .  T
C3320      N3322   1.157       .  T
C3325      C3326   1.410       .  A
C3325      C3330   1.410       .  A
C3326      C3327   1.412       .  A
C3326      C3331   1.450       .  S
C3327      C3328   1.417       .  A
C3327      C3334   1.446       .  S
C3328      C3329   1.423       .  A
C3329      C3330   1.415       .  A
C3329      C3332   1.451       .  S
C3330      C3333   1.452       .  S
C3331      N3338   1.156       .  T
C3332      N3337   1.158       .  T
C3333      N3335   1.158       .  T
C3334      N3336   1.157       .  T
C3339      C3340   1.421       .  A
C3339      C3344   1.424       .  A
C3340      C3341   1.417       .  A
C3340      C3345   1.448   1_565  S
C3341      C3342   1.407       .  A
C3341      C3348   1.449       .  S
C3342      C3343   1.403       .  A
C3343      C3344   1.409       .  A
C3343      C3346   1.449       .  S
C3344      C3347   1.450       .  S
C3345      N3352   1.157       .  T
C3346      N3351   1.157       .  T
C3347      N3349   1.156       .  T
C3348      N3350   1.157       .  T
C3353      C3354   1.425       .  A
C3353      C3358   1.418       .  A
C3354      C3355   1.409       .  A
C3354      C3359   1.451       .  S
C3355      C3356   1.406       .  A
C3355      C3362   1.452       .  S
C3356      C3357   1.411       .  A
C3357      C3358   1.411       .  A
C3357      C3360   1.447       .  S
C3358      C3361   1.453       .  S
C3360      N3365   1.156       .  T
C3362      N3364   1.157       .  T
C3367      C3368   1.427       .  A
C3367      C3372   1.426       .  A
C3368      C3369   1.409       .  A
C3368      C3373   1.452       .  S
C3369      C3370   1.403       .  A
C3369      C3376   1.450       .  S
C3370      C3371   1.406       .  A
C3371      C3372   1.419       .  A
C3371      C3374   1.448       .  S
C3372      C3375   1.450       .  S
C3373      N3380   1.158       .  T
C3374      N3379   1.157       .  T
C3376      N3378   1.157       .  T
C3381      C3382   1.400       .  A
C3381      C3386   1.401       .  A
C3382      C3383   1.403       .  A
C3382      C3387   1.450       .  S
C3383      C3384   1.420       .  A
C3383      C3390   1.450       .  S
C3384      C3385   1.420       .  A
C3385      C3386   1.407       .  A
C3386      C3389   1.449       .  S
C3387      N3394   1.157       .  T
C3388      N3393   1.157       .  T
C3390      N3392   1.157       .  T
C3395      C3396   1.417       .  A
C3395      C3400   1.417       .  A
C3396      C3397   1.408       .  A
C3396      C3401   1.452       .  S
C3397      C3398   1.417       .  A
C3397      C3404   1.450       .  S
C3398      C3399   1.415       .  A
C3399      C3400   1.414       .  A
C3399      C3402   1.451       .  S
C3400      C3403   1.450       .  S
C3401      N3408   1.157       .  T
C3402      N3407   1.158       .  T
C3404      N3406   1.157       .  T
C3409      C3410   1.418       .  A
C3409      C3414   1.421       .  A
C3410      C3411   1.416       .  A
C3410      C3415   1.450       .  S
C3411      C3412   1.410       .  A
C3411      C3418   1.448       .  S
C3412      C3413   1.397       .  A
C3413      C3414   1.399       .  A
C3413      C3416   1.448       .  S
C3414      C3417   1.447       .  S
C3416      N3421   1.157       .  T
C3418      N3420   1.157       .  T
C3423      C3424   1.412       .  A
C3423      C3428   1.414       .  A
C3424      C3425   1.414       .  A
C3424      C3429   1.446       .  S
C3425      C3426   1.412       .  A
C3425      C3432   1.450       .  S
C3426      C3427   1.408       .  A
C3427      C3428   1.411       .  A
C3427      C3430   1.450       .  S
C3428      C3431   1.448       .  S
C3429      N3436   1.156       .  T
C3430      N3435   1.157       .  T
C3431      N3433   1.157       .  T
C3432      N3434   1.157       .  T
C3437      C3438   1.404       .  A
C3437      C3442   1.404       .  A
C3438      C3439   1.409       .  A
C3438      C3443   1.450       .  S
C3439      C3440   1.424       .  A
C3439      C3446   1.450       .  S
C3440      C3441   1.421       .  A
C3441      C3442   1.415       .  A
C3441      C3444   1.445       .  S
C3442      C3445   1.449       .  S
C3443      N3450   1.157       .  T
C3444      N3449   1.156       .  T
C3445      N3447   1.157       .  T
C3446      N3448   1.156       .  T
C3451      C3452   1.415       .  A
C3451      C3456   1.409       .  A
C3453      C3460   1.448       .  S
C3454      C3455   1.410       .  A
C3455      C3456   1.407       .  A
C3455      C3458   1.449       .  S
C3456      C3459   1.451       .  S
C3458      N3463   1.157       .  T
C3459      N3461   1.157       .  T
C3460      N3462   1.157       .  T
C3465      C3470   1.400       .  A
C3466      C3471   1.449       .  S
C3467      C3468   1.429   1_554  A
C3468      C3469   1.430       .  A
C3469      C3470   1.408       .  A
C3469      C3472   1.452       .  S
C3470      C3473   1.450   1_556  S
C3471      N3478   1.157       .  T
C3472      N3477   1.158       .  T
C3473      N3475   1.157       .  T
C3479      C3480   1.410       .  A
C3480      C3481   1.409       .  A
C3480      C3485   1.451       .  S
C3481      C3482   1.415       .  A
C3481      C3488   1.450       .  S
C3483      C3484   1.407       .  A
C3483      C3486   1.449       .  S
C3484      C3487   1.447       .  S
C3485      N3492   1.157       .  T
C3486      N3491   1.157       .  T
C3487      N3489   1.155       .  T
C3488      N3490   1.158       .  T
C3493      C3494   1.412       .  A
C3493      C3498   1.434       .  A
C3494      C3495   1.411       .  A
C3494      C3499   1.442       .  S
C3495      C3496   1.415       .  A
C3495      C3502   1.445       .  S
C3496      C3497   1.426       .  A
C3497      C3498   1.445       .  A
C3497      C3500   1.443       .  S
C3498      C3501   1.445       .  S
C3499      N3506   1.157       .  T
C3500      N3505   1.156       .  T
C3501      N3503   1.156       .  T
C3502      N3504   1.157       .  T
C3507      C3508   1.432       .  A
C3507      C3512   1.433       .  A
C3508      C3509   1.439       .  A
C3508      C3513   1.448       .  S
C3509      C3510   1.425       .  A
C3509      C3516   1.450       .  S
C3510      C3511   1.418       .  A
C3511      C3512   1.433       .  A
C3511      C3514   1.452       .  S
C3512      C3515   1.444       .  S
C3513      N3520   1.158       .  T
C3514      N3519   1.157       .  T
C3515      N3517   1.155       .  T
C3516      N3518   1.157       .  T
