geometry optimzed in LAMMPS
_audit_creation_date              2020-11-30 
_audit_creation_method            'lammps2cif' 
_symmetry_space_group_name_H-M    'P1' 
_symmetry_Int_Tables_number       1 
_symmetry_cell_setting            triclinic 
loop_ 
_symmetry_equiv_pos_as_xyz 
  x,y,z 
_cell_length_a                    47.45142488 
_cell_length_b                    47.41397734124786 
_cell_length_c                    47.47555782687041 
_cell_angle_alpha                 90.19200994949395 
_cell_angle_beta                  89.58282246854593 
_cell_angle_gamma                 90.5482089266393 
loop_ 
_atom_site_label 
_atom_site_type_symbol 
_atom_site_fract_x 
_atom_site_fract_y 
_atom_site_fract_z 
_atom_site_charge 
Zn1        Zn  0.51403091  0.47202905  0.02418948     1.49700
Zn2        Zn  0.46605483  0.52024377  0.02587773     1.49400
Zn3        Zn  0.51458394  0.52087743  0.97719783     1.49100
Zn4        Zn  0.46549552  0.47214622  0.97664674     1.49500
O5          O  0.48990535  0.49627835  0.00096560    -1.82500
O6          O  0.50587093  0.47824553  0.06620635    -0.73100
O7          O  0.47548200  0.56216652  0.01945401    -0.73000
O8          O  0.55651242  0.51258649  0.98294919    -0.72500
O9          O  0.47270099  0.51108618  0.06765200    -0.73200
O10         O  0.55605727  0.48014679  0.01667074    -0.72800
O11         O  0.50891400  0.56236462  0.98633750    -0.73300
O12         O  0.47180674  0.48282989  0.93501244    -0.72700
O13         O  0.42387761  0.51334317  0.01839422    -0.73500
O14         O  0.50515162  0.51621808  0.93572251    -0.72900
O15         O  0.42383286  0.47900814  0.98628817    -0.73300
O16         O  0.47323594  0.42944818  0.98223726    -0.73300
O17         O  0.50631548  0.43041338  0.01519887    -0.73000
C18         C  0.48907033  0.49400430  0.08014980     0.78700
C19         C  0.49276291  0.57545456  0.00337203     0.79200
C20         C  0.56954560  0.49630404  0.99967155     0.78200
C21         C  0.48777995  0.50064885  0.92226545     0.78600
C22         C  0.41061432  0.49588827  0.00265040     0.79700
C23         C  0.49007148  0.41662725  0.99866268     0.78800
Zn24       Zn  0.48135227  0.97851463  0.47256414     1.49700
Zn25       Zn  0.53137163  0.02621384  0.47343096     1.49400
Zn26       Zn  0.48298945  0.02610491  0.52179486     1.49100
Zn27       Zn  0.52972106  0.97669741  0.52007984     1.49500
O28         O  0.50632728  0.00188580  0.49685974    -1.82500
O29         O  0.48795106  0.98859287  0.43110023    -0.73100
O30         O  0.52542193  0.06819597  0.48242872    -0.73000
O31         O  0.44088557  0.01928741  0.51550176    -0.72500
O32         O  0.52275675  0.02045452  0.43151886    -0.73200
O33         O  0.43993603  0.98671392  0.48165436    -0.72800
O34         O  0.49128709  0.06791940  0.51478938    -0.73300
O35         O  0.52235115  0.98329322  0.56207217    -0.72700
O36         O  0.57296747  0.01699075  0.48040902    -0.73500
O37         O  0.49094899  0.01785712  0.56309092    -0.72900
O38         O  0.57184847  0.98277318  0.51235550    -0.73300
O39         O  0.52108451  0.93555141  0.51125808    -0.73300
O40         O  0.48845930  0.93576142  0.47786440    -0.73000
C41         C  0.50487022  0.00529560  0.41815611     0.78700
C42         C  0.50864157  0.08129767  0.49895351     0.79200
C43         C  0.42721246  0.00316888  0.49880561     0.78200
C44         C  0.50664801  0.00032917  0.57575362     0.78600
C45         C  0.58563116  0.99946229  0.49619604     0.79700
C46         C  0.50492978  0.92239589  0.49423223     0.78800
Zn47       Zn  0.97888577  0.47918529  0.47785337     1.49700
Zn48       Zn  0.02718544  0.47768598  0.52527272     1.49400
Zn49       Zn  0.02802739  0.52693325  0.47797639     1.49100
Zn50       Zn  0.98016963  0.52658146  0.52724184     1.49500
O51         O  0.00354151  0.50261972  0.50207382    -1.82500
O52         O  0.98545957  0.43678121  0.48400785    -0.73100
O53         O  0.06899946  0.48452653  0.51700280    -0.73000
O54         O  0.02034035  0.52077275  0.43579418    -0.72500
O55         O  0.01894349  0.43628479  0.51652905    -0.73200
O56         O  0.98709051  0.48737683  0.43642177    -0.72800
O57         O  0.06939723  0.51824373  0.48451943    -0.73300
O58         O  0.98995179  0.56839740  0.52167885    -0.72700
O59         O  0.02010754  0.48431321  0.56739476    -0.73500
O60         O  0.02278525  0.56846358  0.48793909    -0.72900
O61         O  0.98707936  0.51728472  0.56865970    -0.73300
O62         O  0.93813277  0.52048713  0.51968205    -0.73300
O63         O  0.93743490  0.48799179  0.48571366    -0.73000
C64         C  0.00227344  0.42329417  0.49985467     0.78700
C65         C  0.08236088  0.50111612  0.50042190     0.79200
C66         C  0.00366700  0.50392678  0.42289258     0.78200
C67         C  0.00732585  0.58157625  0.50566386     0.78600
C68         C  0.00356050  0.50042275  0.58123125     0.79700
C69         C  0.92459993  0.50454756  0.50266918     0.78800
Zn70       Zn  0.97421831  0.02081413  0.02516058     1.49700
Zn71       Zn  0.02118749  0.97200371  0.02358810     1.49400
Zn72       Zn  0.97369920  0.97319029  0.97562816     1.49100
Zn73       Zn  0.02151171  0.02207768  0.97615137     1.49500
O74         O  0.99785813  0.99700280  0.00022854    -1.82500
O75         O  0.98067024  0.01221766  0.06670214    -0.73100
O76         O  0.01162097  0.93013699  0.01521768    -0.73000
O77         O  0.93272385  0.98114473  0.98330597    -0.72500
O78         O  0.01371244  0.97924561  0.06612176    -0.73200
O79         O  0.93277732  0.01419999  0.01672172    -0.72800
O80         O  0.97923044  0.93114433  0.98165650    -0.73300
O81         O  0.01309129  0.01545392  0.93432811    -0.72700
O82         O  0.06312406  0.97955934  0.01424100    -0.73500
O83         O  0.98060866  0.98134698  0.93425092    -0.72900
O84         O  0.06322763  0.01396362  0.98229991    -0.73300
O85         O  0.01435306  0.06397741  0.98500982    -0.73300
O86         O  0.98232492  0.06272965  0.01939526    -0.73000
C87         C  0.99698688  0.99551819  0.07967462     0.78700
C88         C  0.99482842  0.91738455  0.99833168     0.79200
C89         C  0.91968415  0.99787351  0.99976861     0.78200
C90         C  0.99652885  0.99872970  0.92112600     0.78600
C91         C  0.07636194  0.99653603  0.99776311     0.79700
C92         C  0.99836776  0.07659887  0.00268877     0.78800
C93         C  0.64360143  0.47700976  0.01615808     0.81800
N94         N  0.65792259  0.49335606  0.99756971    -0.76500
C95         C  0.64469553  0.51085626  0.97968200     0.84300
N96         N  0.61595232  0.51220516  0.98057967    -0.76400
C97         C  0.60092232  0.49584483  0.99927133     0.84400
N98         N  0.61494312  0.47833110  0.01708581    -0.78100
C99         C  0.33529684  0.51157579  0.02066439     0.81800
N100        N  0.36408620  0.51342781  0.01953847    -0.76500
C101        C  0.37925095  0.49467016  0.00356254     0.84300
N102        N  0.36536433  0.47420914  0.98862595    -0.76400
C103        C  0.33679023  0.47209731  0.99012882     0.84400
N104        N  0.32235137  0.49073634  0.00601289    -0.78100
C105        C  0.02209778  0.51654502  0.34708110     0.81800
N106        N  0.02167962  0.51911800  0.37580046    -0.76500
C107        C  0.00366871  0.50271089  0.39161928     0.84300
N108        N  0.98612400  0.48392622  0.37850257    -0.76400
C109        C  0.98665371  0.48129820  0.35001603     0.84400
N110        N  0.00449062  0.49765681  0.33481381    -0.78100
C111        C  0.98333586  0.15030550  0.02564684     0.81800
N112        N  0.99783545  0.16499816  0.00591617    -0.76500
C113        C  0.01244598  0.15213669  0.98511651     0.84300
N114        N  0.01291918  0.12338211  0.98425206    -0.76400
C115        C  0.99822875  0.10794073  0.00385363     0.84400
N116        N  0.98319696  0.12156814  0.02445856    -0.78100
C117        C  0.98487237  0.51464661  0.65638561     0.81800
N118        N  0.98481981  0.51543934  0.62767163    -0.76500
C119        C  0.00358942  0.49962659  0.61250329     0.84300
N120        N  0.02248659  0.48319526  0.62635160    -0.76400
C121        C  0.02288924  0.48297376  0.65503699     0.84400
N122        N  0.00407950  0.49861917  0.66960954    -0.78100
Zn123      Zn  0.17922175  0.26918752  0.82130648     1.49700
Zn124      Zn  0.17922474  0.31415799  0.77214863     1.49400
Zn125      Zn  0.15895793  0.33200445  0.83547861     1.49100
Zn126      Zn  0.22424888  0.31746939  0.82000044     1.49500
O127        O  0.18493001  0.30875447  0.81241272    -1.82500
O128        O  0.17032452  0.24726166  0.78700709    -0.73100
O129        O  0.15278195  0.34534992  0.76624198    -0.73000
O130        O  0.13113224  0.30603782  0.85825128    -0.72500
O131        O  0.16495954  0.27860982  0.75286256    -0.73200
O132        O  0.14776533  0.26351186  0.84781996    -0.72800
O133        O  0.13693604  0.35846030  0.80866092    -0.73300
O134        O  0.22704444  0.34315244  0.85268167    -0.72700
O135        O  0.21557516  0.32474875  0.75200903    -0.73500
O136        O  0.18293935  0.35563043  0.86348101    -0.72900
O137        O  0.24551603  0.33323584  0.78680074    -0.73300
O138        O  0.24609297  0.28248256  0.82734406    -0.73300
O139        O  0.21354863  0.24940556  0.83448605    -0.73000
C140        C  0.16521502  0.25326391  0.76159266     0.78700
C141        C  0.13765232  0.36105345  0.78178206     0.79200
C142        C  0.13010490  0.27909900  0.86044294     0.78200
C143        C  0.20957498  0.35689985  0.86763078     0.78600
C144        C  0.23994023  0.33182166  0.76070471     0.79700
C145        C  0.23914703  0.25701998  0.83207441     0.78800
C146        C  0.00620986  0.84286008  0.01909978     0.81800
N147        N  0.00798137  0.87147308  0.01810924    -0.76500
C148        C  0.99318863  0.88603315  0.99843301     0.84300
N149        N  0.97686369  0.87151955  0.97933025    -0.76400
C150        C  0.97573482  0.84267839  0.98007048     0.84400
N151        N  0.99022740  0.82908772  0.00012013    -0.78100
Zn152      Zn  0.81549626  0.67271420  0.77132695     1.49700
Zn153      Zn  0.76885892  0.67867980  0.81781457     1.49400
Zn154      Zn  0.83058543  0.65666173  0.83586859     1.49100
Zn155      Zn  0.82053127  0.72108833  0.81520102     1.49500
O156        O  0.80918438  0.68170993  0.81070057    -1.82500
O157        O  0.78156490  0.65707851  0.75198708    -0.73100
O158        O  0.76108372  0.64798908  0.84441723    -0.73000
O159        O  0.85677468  0.63171696  0.81063877    -0.72500
O160        O  0.74776243  0.66929612  0.78209610    -0.73200
O161        O  0.84689836  0.64576578  0.76693042    -0.72800
O162        O  0.80214588  0.63103970  0.85864808    -0.71700
O163        O  0.84723048  0.72520797  0.84637135    -0.72700
O164        O  0.75196230  0.71476882  0.83280717    -0.73500
O165        O  0.85482280  0.68191950  0.86291222    -0.72900
O166        O  0.78705777  0.74486427  0.82401779    -0.73300
O167        O  0.83690627  0.73954556  0.78045631    -0.73300
O168        O  0.82237790  0.70797570  0.74916119    -0.73000
C169        C  0.75574972  0.66069648  0.75794269     0.78700
C170        C  0.77507854  0.63058281  0.85881263     0.79200
C171        C  0.86067372  0.63055149  0.78387564     0.78200
C172        C  0.85893760  0.70871218  0.86359129     0.78600
C173        C  0.76163346  0.73980152  0.83100321     0.79700
C174        C  0.83095426  0.73265304  0.75533591     0.78800
Zn175      Zn  0.80700078  0.36046309  0.19434335     1.49700
Zn176      Zn  0.80600318  0.31001902  0.14656722     1.49400
Zn177      Zn  0.85021013  0.30776793  0.19660804     1.49100
Zn178      Zn  0.78944142  0.30240595  0.20934027     1.49500
O179        O  0.81439496  0.32125014  0.18494458    -1.82500
O180        O  0.78677907  0.37776438  0.16041518    -0.73100
O181        O  0.84160233  0.29458751  0.12745381    -0.73000
O182        O  0.86958867  0.34031326  0.21590034    -0.72500
O183        O  0.78719215  0.34327849  0.12817466    -0.73200
O184        O  0.84345825  0.37839470  0.20819178    -0.72800
O185        O  0.87130584  0.29202652  0.16337353    -0.73300
O186        O  0.80714787  0.29015518  0.24515121    -0.72700
O187        O  0.77763550  0.27730928  0.14545224    -0.73500
O188        O  0.84612552  0.27534452  0.22448693    -0.72900
O189        O  0.77563698  0.26840323  0.19129061    -0.73300
O190        O  0.75638806  0.32524919  0.21878277    -0.73300
O191        O  0.78100195  0.36334770  0.22919875    -0.73000
C192        C  0.77954650  0.36782067  0.13631853     0.78700
C193        C  0.86519799  0.28693046  0.13772604     0.79200
C194        C  0.86496203  0.36663971  0.21911161     0.78200
C195        C  0.82806649  0.27374912  0.24434922     0.78600
C196        C  0.76974054  0.26204788  0.16609936     0.79700
C197        C  0.76049819  0.34662717  0.23420449     0.78800
Zn198      Zn  0.17549903  0.73437996  0.17846493     1.49700
Zn199      Zn  0.17511826  0.68790160  0.22487455     1.49400
Zn200      Zn  0.15841157  0.66968805  0.16141708     1.49100
Zn201      Zn  0.22197972  0.68856346  0.17589285     1.49500
O202        O  0.18244545  0.69463605  0.18484887    -1.82500
O203        O  0.16792533  0.75531627  0.21396715    -0.73100
O204        O  0.14546961  0.65911811  0.23046192    -0.73000
O205        O  0.13080633  0.69504041  0.13928562    -0.72500
O206        O  0.16431622  0.72262055  0.24701478    -0.73200
O207        O  0.14310125  0.73826847  0.15370497    -0.72800
O208        O  0.13495317  0.64302705  0.18758250    -0.73300
O209        O  0.22695748  0.66165211  0.14449638    -0.72700
O210        O  0.21022970  0.67486655  0.24370670    -0.73500
O211        O  0.18384885  0.64574298  0.13434920    -0.72900
O212        O  0.24268872  0.67481862  0.20966545    -0.73300
O213        O  0.24246645  0.72423618  0.16613146    -0.73300
O214        O  0.20890308  0.75637142  0.16421766    -0.73000
C215        C  0.16463294  0.74827488  0.23948731     0.78700
C216        C  0.13191881  0.64250423  0.21442122     0.79200
C217        C  0.12728054  0.72182797  0.13960416     0.78200
C218        C  0.21063561  0.64575889  0.13038685     0.78600
C219        C  0.23554181  0.67184917  0.23535530     0.79700
C220        C  0.23467324  0.74954365  0.16315475     0.78800
C221        C  0.51236514  0.34404062  0.01745467     0.81800
N222        N  0.49410246  0.32823445  0.00221926    -0.76500
C223        C  0.47422779  0.33980045  0.98560760     0.84300
N224        N  0.47287116  0.36862336  0.98394426    -0.76400
C225        C  0.49117543  0.38516508  0.99917208     0.84400
N226        N  0.51070290  0.37260863  0.01587263    -0.78100
C227        C  0.48101026  0.64912340  0.02700498     0.81800
N228        N  0.47907009  0.62060595  0.02480514    -0.76500
C229        C  0.49431014  0.60668721  0.00477528     0.84300
N230        N  0.51110617  0.62171837  0.98649387    -0.76400
C231        C  0.51266385  0.65047698  0.98833669     0.84400
N232        N  0.49772025  0.66358244  0.00883770    -0.78100
C233        C  0.52179028  0.02454667  0.34374727     0.81800
N234        N  0.52295726  0.02294520  0.37239219    -0.76500
C235        C  0.50352105  0.00720400  0.38698219     0.84300
N236        N  0.48284505  0.99311632  0.37265151    -0.76400
C237        C  0.48128545  0.99499016  0.34406613     0.84400
N238        N  0.50083589  0.01066032  0.33012351    -0.78100
C239        C  0.15037671  0.97525524  0.01078383     0.81800
N240        N  0.12177089  0.97650018  0.01210831    -0.76500
C241        C  0.10765002  0.99583095  0.99646118     0.84300
N242        N  0.12254254  0.01430433  0.97973356    -0.76400
C243        C  0.15131554  0.01337885  0.97880738     0.84400
N244        N  0.16459587  0.99367710  0.99421202    -0.78100
C245        C  0.84564266  0.01867582  0.01305410     0.81800
N246        N  0.83188633  0.99941316  0.99708543    -0.76500
C247        C  0.84571843  0.97952922  0.98208248     0.84300
N248        N  0.87435832  0.97917445  0.98292553    -0.76400
C249        C  0.88869702  0.99835351  0.99897925     0.84400
N250        N  0.87424904  0.01800340  0.01415042    -0.78100
Zn251      Zn  0.69528901  0.84830990  0.80439127     1.49700
Zn252      Zn  0.64691944  0.79823437  0.80311097     1.49400
Zn253      Zn  0.70935530  0.78899628  0.79237997     1.49100
Zn254      Zn  0.69413560  0.79742256  0.85114554     1.49500
O255        O  0.68427233  0.81002537  0.81400985    -1.82500
O256        O  0.66133973  0.86636296  0.78546923    -0.73100
O257        O  0.64878891  0.76704412  0.77313930    -0.73000
O258        O  0.72071843  0.80795631  0.75754725    -0.72500
O259        O  0.62869016  0.83206731  0.78480155    -0.73200
O260        O  0.72889972  0.84980523  0.77633190    -0.72800
O261        O  0.69226486  0.75266367  0.78143920    -0.73300
O262        O  0.72098336  0.76370213  0.84871227    -0.72700
O263        O  0.62640011  0.78160290  0.83769101    -0.73500
O264        O  0.74456222  0.78176840  0.81304010    -0.72900
O265        O  0.65921133  0.78262676  0.87107510    -0.73300
O266        O  0.71403235  0.83053799  0.87009948    -0.73300
O267        O  0.71045130  0.86648527  0.83997576    -0.73000
C268        C  0.63705368  0.85692993  0.77811309     0.78700
C269        C  0.66872037  0.74959984  0.76925096     0.79200
C270        C  0.73447760  0.83091437  0.75807643     0.78200
C271        C  0.74209984  0.76336167  0.83207762     0.78600
C272        C  0.63449295  0.77589999  0.86272205     0.79700
C273        C  0.71913020  0.85620304  0.86323096     0.78800
C274        C  0.52143835  0.97940797  0.64978381     0.81800
N275        N  0.52180210  0.98004066  0.62106788    -0.76500
C276        C  0.50651687  0.99975310  0.60696787     0.84300
N277        N  0.49091009  0.01889217  0.62182888    -0.76400
C278        C  0.49089228  0.01856187  0.65051067     0.84400
N279        N  0.50609631  0.99881985  0.66386973    -0.78100
Zn280      Zn  0.31952577  0.17574448  0.76772645     1.49700
Zn281      Zn  0.33595534  0.15697571  0.83068859     1.49400
Zn282      Zn  0.32120920  0.22201862  0.81469555     1.49100
Zn283      Zn  0.27255434  0.17523394  0.81382379     1.49500
O284        O  0.31263623  0.18213236  0.80738749    -1.82500
O285        O  0.35132226  0.15058826  0.76171085    -0.73100
O286        O  0.35896696  0.18196028  0.85902054    -0.73000
O287        O  0.33676311  0.24350379  0.78081775    -0.72500
O288        O  0.36327271  0.13436933  0.80395137    -0.73200
O289        O  0.32771316  0.21134762  0.74806252    -0.72800
O290        O  0.34667563  0.22562967  0.84713382    -0.73300
O291        O  0.25294935  0.20968242  0.82815102    -0.72700
O292        O  0.30891583  0.13040256  0.85386956    -0.73500
O293        O  0.28611777  0.24289896  0.82511823    -0.72900
O294        O  0.26623744  0.14487126  0.84119062    -0.73300
O295        O  0.25202854  0.16530558  0.77830662    -0.73300
O296        O  0.28613551  0.16219772  0.74627784    -0.73000
C297        C  0.36672363  0.13541152  0.77709859     0.78700
C298        C  0.35997168  0.20876512  0.86280887     0.79200
C299        C  0.33411028  0.23632221  0.75513640     0.78200
C300        C  0.26073535  0.23535032  0.82967727     0.78600
C301        C  0.28191808  0.12902785  0.85557200     0.79700
C302        C  0.26026632  0.16163867  0.75307970     0.78800
Zn303      Zn  0.30535474  0.80655563  0.14788294     1.49700
Zn304      Zn  0.29281424  0.79443043  0.20681212     1.49400
Zn305      Zn  0.35116904  0.81100912  0.19857047     1.49100
Zn306      Zn  0.30088884  0.85609769  0.19581931     1.49500
O307        O  0.31409236  0.81930606  0.18537352    -1.82500
O308        O  0.27566744  0.77471871  0.14739211    -0.73100
O309        O  0.31385601  0.75922599  0.21372890    -0.73000
O310        O  0.37144895  0.79151271  0.16623571    -0.72500
O311        O  0.25669231  0.78477783  0.18873944    -0.73200
O312        O  0.34057652  0.78999253  0.13090834    -0.72800
O313        O  0.34930883  0.78331643  0.23176400    -0.73300
O314        O  0.33409774  0.87826019  0.21254020    -0.72700
O315        O  0.28380800  0.81160813  0.24333946    -0.73500
O316        O  0.36900025  0.84711404  0.21327265    -0.72900
O317        O  0.27044445  0.85292914  0.22676329    -0.73300
O318        O  0.28336101  0.87287528  0.16061902    -0.73300
O319        O  0.28840561  0.83959431  0.12756622    -0.73000
C320        C  0.25610125  0.77154159  0.16558320     0.78700
C321        C  0.33339171  0.76156503  0.23161071     0.79200
C322        C  0.36446514  0.78376857  0.14135892     0.78200
C323        C  0.35932870  0.87157246  0.21903128     0.78600
C324        C  0.26888457  0.83356324  0.24531104     0.79700
C325        C  0.27936747  0.86369987  0.13552730     0.78800
Zn326      Zn  0.70424732  0.15522573  0.19043113     1.49700
Zn327      Zn  0.71732201  0.21395373  0.20369753     1.49400
Zn328      Zn  0.70217765  0.20541393  0.14407019     1.49100
Zn329      Zn  0.65644029  0.20435323  0.19549029     1.49500
O330        O  0.69279225  0.19308259  0.18179948    -1.82500
O331        O  0.73775731  0.15443078  0.21785792    -0.73100
O332        O  0.75232985  0.21940545  0.18226567    -0.73000
O333        O  0.71869977  0.17219791  0.12295828    -0.72500
O334        O  0.72715240  0.19463510  0.23870863    -0.73200
O335        O  0.71760061  0.13704198  0.15434325    -0.72800
O336        O  0.73176348  0.23691773  0.14490585    -0.73300
O337        O  0.63611380  0.22300650  0.16284524    -0.72700
O338        O  0.70142896  0.25079020  0.21446448    -0.73500
O339        O  0.66740223  0.22276232  0.12751759    -0.72900
O340        O  0.65944755  0.23424956  0.22689094    -0.73300
O341        O  0.63809042  0.16941687  0.21241976    -0.73300
O342        O  0.67095191  0.13601015  0.20962067    -0.73000
C343        C  0.74123985  0.17215866  0.23773842     0.78700
C344        C  0.75149070  0.23752947  0.16284949     0.79200
C345        C  0.72393127  0.14677816  0.13001307     0.78200
C346        C  0.64349981  0.22985820  0.13775895     0.78600
C347        C  0.67904160  0.25266820  0.22910964     0.79700
C348        C  0.64668924  0.14449037  0.21778120     0.78800
C349        C  0.46814373  0.50389208  0.15570474     0.81800
N350        N  0.48682731  0.48672472  0.16826524    -0.76500
C351        C  0.50627649  0.47230919  0.15331540     0.84300
N352        N  0.50721862  0.47501947  0.12479160    -0.76400
C353        C  0.48847621  0.49202924  0.11143516     0.84400
N354        N  0.46905508  0.50662235  0.12705011    -0.78100
C355        C  0.84993165  0.51893629  0.52298748     0.81800
N356        N  0.83629093  0.50533140  0.50194292    -0.76500
C357        C  0.85034017  0.49148931  0.48135605     0.84300
N358        N  0.87899960  0.49111717  0.48184308    -0.76400
C359        C  0.89335269  0.50511283  0.50250664     0.84400
N360        N  0.87870143  0.51910667  0.52308835    -0.78100
Zn361      Zn  0.65532487  0.30626570  0.30057258     1.49700
Zn362      Zn  0.70365695  0.31280315  0.34808127     1.49400
Zn363      Zn  0.71714297  0.30305874  0.28710214     1.49100
Zn364      Zn  0.69759480  0.36095111  0.29921631     1.49500
O365        O  0.69161232  0.32183993  0.31040187    -1.82500
O366        O  0.63796411  0.28872735  0.33628588    -0.73100
O367        O  0.73413163  0.28234681  0.34897562    -0.73000
O368        O  0.69950997  0.29136298  0.25156750    -0.72500
O369        O  0.67041590  0.29592629  0.36937206    -0.73200
O370        O  0.65946212  0.27545081  0.26998011    -0.72800
O371        O  0.73116886  0.26842506  0.30453910    -0.73300
O372        O  0.72333267  0.36302301  0.26412241    -0.72700
O373        O  0.72005378  0.34828496  0.36509904    -0.73500
O374        O  0.74953641  0.32758963  0.27768409    -0.72900
O375        O  0.71670272  0.38143297  0.33201712    -0.73300
O376        O  0.66030438  0.37688705  0.28631792    -0.73300
O377        O  0.63296305  0.33829691  0.28329185    -0.73000
C378        C  0.64659627  0.28584912  0.36163834     0.78700
C379        C  0.73997345  0.26493312  0.32937204     0.79200
C380        C  0.67842769  0.27478353  0.25078015     0.78200
C381        C  0.74463753  0.34730631  0.26057559     0.78600
C382        C  0.72484342  0.37335510  0.35634979     0.79700
C383        C  0.63753023  0.36454306  0.27860997     0.78800
C384        C  0.52944853  0.15634163  0.48589841     0.81800
N385        N  0.51027134  0.16975177  0.50228161    -0.76500
C386        C  0.49057966  0.15549111  0.51749056     0.84300
N387        N  0.49025479  0.12676077  0.51637457    -0.76400
C388        C  0.50924131  0.11264384  0.49991339     0.84400
N389        N  0.52874667  0.12758434  0.48457210    -0.78100
C390        C  0.52690742  0.84901825  0.51007110     0.81800
N391        N  0.51046616  0.83408599  0.49212956    -0.76500
C392        C  0.49196567  0.84672169  0.47472748     0.84300
N393        N  0.48974356  0.87546407  0.47551506    -0.76400
C394        C  0.50609892  0.89102993  0.49355744     0.84400
N395        N  0.52456644  0.87758926  0.51081384    -0.78100
Zn396      Zn  0.33633376  0.66652716  0.33379306     1.49700
Zn397      Zn  0.31863082  0.72968171  0.31548194     1.49400
Zn398      Zn  0.31861079  0.68176736  0.26956802     1.49100
Zn399      Zn  0.27220451  0.68144314  0.31638400     1.49500
O400        O  0.31191067  0.68957886  0.30928935    -1.82500
O401        O  0.36443603  0.69319985  0.35573169    -0.73100
O402        O  0.32850963  0.74956074  0.27925850    -0.73000
O403        O  0.34316832  0.64890353  0.26534740    -0.72500
O404        O  0.35025999  0.73532618  0.34135702    -0.73200
O405        O  0.35797625  0.63770678  0.30835164    -0.72800
O406        O  0.33355335  0.71494971  0.24802859    -0.73300
O407        O  0.25066297  0.66942215  0.28234245    -0.72700
O408        O  0.28447367  0.74993564  0.33071486    -0.73500
O409        O  0.28304479  0.67368890  0.24879225    -0.72900
O410        O  0.25186114  0.71623266  0.32728144    -0.73300
O411        O  0.26714847  0.65327359  0.34648278    -0.73300
O412        O  0.31049141  0.64385818  0.36161100    -0.73000
C413        C  0.36679200  0.72021913  0.35565095     0.78700
C414        C  0.33350362  0.74098887  0.25434188     0.79200
C415        C  0.35725802  0.63334332  0.28167135     0.78200
C416        C  0.25764495  0.67003750  0.25651632     0.78600
C417        C  0.25892514  0.74169050  0.33182956     0.79700
C418        C  0.28364817  0.64059990  0.36299638     0.78800
C419        C  0.15689384  0.52059665  0.48443489     0.81800
N420        N  0.12820173  0.52066339  0.48474819    -0.76500
C421        C  0.11355179  0.50063107  0.49957227     0.84300
N422        N  0.12784990  0.48017253  0.51362652    -0.76400
C423        C  0.15656142  0.47972092  0.51281253     0.84400
N424        N  0.17054838  0.50013502  0.49844569    -0.78100
C425        C  0.49899417  0.52674570  0.84885832     0.81800
N426        N  0.50111280  0.52406668  0.87738878    -0.76500
C427        C  0.48598783  0.50350892  0.89121899     0.84300
N428        N  0.46925665  0.48543119  0.87622155    -0.76400
C429        C  0.46771166  0.48777209  0.84773019     0.84400
N430        N  0.48242076  0.50844905  0.83458245    -0.78100
Zn431      Zn  0.34914602  0.30393999  0.69521157     1.49700
Zn432      Zn  0.29754454  0.34943416  0.69112254     1.49400
Zn433      Zn  0.30131024  0.29729240  0.64720058     1.49100
Zn434      Zn  0.28987287  0.29196534  0.70901014     1.49500
O435        O  0.31137751  0.31215259  0.68336510    -1.82500
O436        O  0.36570247  0.34047198  0.70885269    -0.73100
O437        O  0.28404739  0.36581007  0.65425014    -0.73000
O438        O  0.33610994  0.27940536  0.63012759    -0.72500
O439        O  0.32992499  0.37079740  0.70993607    -0.73200
O440        O  0.36975880  0.28464329  0.66236038    -0.72800
O441        O  0.28518723  0.32925275  0.62438032    -0.73300
O442        O  0.25374284  0.28054578  0.69238412    -0.72700
O443        O  0.26321345  0.34769428  0.71841714    -0.73500
O444        O  0.27047288  0.26710589  0.65082529    -0.72900
O445        O  0.28223757  0.31417637  0.74358309    -0.73300
O446        O  0.30866724  0.25733615  0.72001565    -0.73300
O447        O  0.34981452  0.27715749  0.72941335    -0.73000
C448        C  0.35539020  0.36433754  0.71576695     0.78700
C449        C  0.27893747  0.35481413  0.63014659     0.79200
C450        C  0.36129693  0.27527056  0.63848507     0.78200
C451        C  0.25193859  0.26550567  0.67032073     0.78600
C452        C  0.26335620  0.33250403  0.74049885     0.79700
C453        C  0.33153351  0.25777313  0.73349209     0.78800
Zn454      Zn  0.69452839  0.69307572  0.65025570     1.49700
Zn455      Zn  0.70524761  0.70223659  0.71000877     1.49400
Zn456      Zn  0.64415857  0.69781713  0.69722978     1.49100
Zn457      Zn  0.68724896  0.64533067  0.69999891     1.49500
O458        O  0.68037527  0.68311123  0.68707923    -1.82500
O459        O  0.72690001  0.72262701  0.65120846    -0.73100
O460        O  0.68764517  0.71050627  0.74659689    -0.73000
O461        O  0.62905614  0.71757688  0.66239262    -0.72500
O462        O  0.71673846  0.73840787  0.69379309    -0.73200
O463        O  0.66245530  0.71198486  0.62945761    -0.72800
O464        O  0.64816494  0.72718667  0.72898839    -0.73300
O465        O  0.64979077  0.62852958  0.71292348    -0.72700
O466        O  0.73938164  0.67990725  0.71647266    -0.73500
O467        O  0.62037719  0.66499054  0.71232172    -0.72900
O468        O  0.71334466  0.64595656  0.73471361    -0.73300
O469        O  0.70772152  0.62508133  0.66772107    -0.73300
O470        O  0.71075872  0.65735762  0.63354198    -0.73000
C471        C  0.73014649  0.74077966  0.67076951     0.78700
C472        C  0.66707876  0.72731032  0.74794231     0.79200
C473        C  0.63875246  0.72205301  0.63752502     0.78200
C474        C  0.62564458  0.63922895  0.71823136     0.78600
C475        C  0.73568447  0.66102370  0.73486988     0.79700
C476        C  0.71623474  0.63284402  0.64321080     0.78800
C477        C  0.35256492  0.01852607  0.51876264     0.81800
N478        N  0.33882518  0.00475202  0.49786277    -0.76500
C479        C  0.35294547  0.99052589  0.47753468     0.84300
N480        N  0.38156220  0.98974241  0.47829548    -0.76400
C481        C  0.39595005  0.00369897  0.49891037     0.84400
N482        N  0.38134499  0.01832799  0.51908651    -0.78100
C483        C  0.65998301  0.97768369  0.50929762     0.81800
N484        N  0.63117269  0.97781956  0.50945346    -0.76500
C485        C  0.61695312  0.99878854  0.49595653     0.84300
N486        N  0.63180233  0.01961760  0.48246292    -0.76400
C487        C  0.66046592  0.01985115  0.48300396     0.84400
N488        N  0.67406439  0.99897668  0.49635785    -0.78100
C489        C  0.02464565  0.34942242  0.51248937     0.81800
N490        N  0.00841986  0.33519176  0.49386522    -0.76500
C491        C  0.98941228  0.34860763  0.47772753     0.84300
N492        N  0.98675404  0.37717154  0.48002980    -0.76400
C493        C  0.00328227  0.39199324  0.49848245     0.84400
N494        N  0.02203902  0.37789786  0.51485377    -0.78100
C495        C  0.01192137  0.97601126  0.15420043     0.81800
N496        N  0.01241819  0.97637289  0.12548310    -0.76500
C497        C  0.99641390  0.99521807  0.11107207     0.84300
N498        N  0.98020494  0.01406154  0.12576876    -0.76400
C499        C  0.98014931  0.01412057  0.15453818     0.84400
N500        N  0.99589688  0.99494508  0.16826980    -0.78100
C501        C  0.99491191  0.65608050  0.52748526     0.81800
N502        N  0.01590067  0.66934430  0.51308894    -0.76500
C503        C  0.03389108  0.65510844  0.49611641     0.84300
N504        N  0.03074670  0.62664491  0.49339919    -0.76400
C505        C  0.01003064  0.61268086  0.50799787     0.84400
N506        N  0.99216729  0.62752746  0.52501439    -0.78100
Zn507      Zn  0.20970624  0.79491619  0.29407802     1.49700
Zn508      Zn  0.19893437  0.85584163  0.30075802     1.49400
Zn509      Zn  0.15153110  0.80592241  0.30965825     1.49100
Zn510      Zn  0.20484666  0.81157457  0.35217383     1.49500
O511        O  0.18923692  0.81953620  0.31597030    -1.82500
O512        O  0.24598963  0.81181303  0.28294426    -0.73100
O513        O  0.16315256  0.87169626  0.28411721    -0.73000
O514        O  0.15075273  0.77250227  0.28168265    -0.72500
O515        O  0.22878792  0.85271385  0.26934403    -0.73200
O516        O  0.18970056  0.78520806  0.25931175    -0.72800
O517        O  0.13015730  0.83843892  0.29136731    -0.73300
O518        O  0.17405237  0.79200364  0.37545880    -0.72700
O519        O  0.21653427  0.87894766  0.33230880    -0.73500
O520        O  0.13684838  0.79038248  0.34693539    -0.72900
O521        O  0.22007560  0.84828582  0.36769908    -0.73300
O522        O  0.23823234  0.78450429  0.34842083    -0.73300
O523        O  0.21705917  0.75997723  0.31520906    -0.73000
C524        C  0.24739099  0.83356948  0.26754308     0.78700
C525        C  0.13792242  0.86236479  0.28121831     0.79200
C526        C  0.16759546  0.77020222  0.26083097     0.78200
C527        C  0.14858897  0.78444635  0.37037283     0.78600
C528        C  0.22458092  0.87273825  0.35718652     0.79700
C529        C  0.23661199  0.76254448  0.33302669     0.78800
Zn530      Zn  0.83908579  0.16733956  0.33532109     1.49700
Zn531      Zn  0.81677109  0.23071789  0.32385799     1.49400
Zn532      Zn  0.82299805  0.18929828  0.27311163     1.49100
Zn533      Zn  0.77505769  0.18241538  0.31740664     1.49500
O534        O  0.81439199  0.19142847  0.31274556    -1.82500
O535        O  0.86647580  0.19394616  0.35786542    -0.73100
O536        O  0.81964818  0.25538555  0.28968086    -0.73000
O537        O  0.85189444  0.16049281  0.26620611    -0.72500
O538        O  0.85059870  0.23657023  0.34667717    -0.73200
O539        O  0.86273273  0.14165442  0.30762180    -0.72800
O540        O  0.83608666  0.22644730  0.25674403    -0.73300
O541        O  0.75712831  0.16439807  0.28371185    -0.72700
O542        O  0.78284267  0.24560494  0.34471089    -0.73500
O543        O  0.78787172  0.17947460  0.25148298    -0.72900
O544        O  0.75339002  0.21825656  0.32109434    -0.73300
O545        O  0.77005378  0.15874512  0.35118738    -0.73300
O546        O  0.81308741  0.14431213  0.36302097    -0.73000
C547        C  0.86818547  0.22097718  0.35909634     0.78700
C548        C  0.82898411  0.25094031  0.26493420     0.79200
C549        C  0.86577974  0.14302807  0.28071065     0.78200
C550        C  0.76366838  0.16985143  0.25832156     0.78600
C551        C  0.75900219  0.24135309  0.33351208     0.79700
C552        C  0.78623850  0.14454780  0.36687184     0.78800
C553        C  0.00989411  0.02041761  0.84699348     0.81800
N554        N  0.99069955  0.00426263  0.83328971    -0.76500
C555        C  0.97382640  0.98578331  0.84724800     0.84300
N556        N  0.97615609  0.98350396  0.87574037    -0.76400
C557        C  0.99519960  0.99987271  0.88999492     0.84400
N558        N  0.01216009  0.01820845  0.87546050    -0.78100
Zn559      Zn  0.84699832  0.80366484  0.69946622     1.49700
Zn560      Zn  0.78705778  0.79022738  0.70898246     1.49400
Zn561      Zn  0.79679712  0.84976089  0.69252793     1.49100
Zn562      Zn  0.80111495  0.79622603  0.64891766     1.49500
O563        O  0.80980633  0.81173123  0.68559010    -1.82500
O564        O  0.84624474  0.77472843  0.73171319    -0.73100
O565        O  0.77639738  0.81167778  0.74268333    -0.73000
O566        O  0.82916602  0.87156651  0.71118790    -0.72500
O567        O  0.80553970  0.75488294  0.72039588    -0.73200
O568        O  0.86366457  0.84003200  0.71466394    -0.72800
O569        O  0.76238725  0.84943769  0.71975363    -0.73300
O570        O  0.78574228  0.82822801  0.62544689    -0.72700
O571        O  0.75175333  0.78012131  0.69042542    -0.73500
O572        O  0.78412751  0.86531886  0.65466253    -0.72900
O573        O  0.77089476  0.76440570  0.65101745    -0.73300
O574        O  0.83727496  0.77975218  0.63337663    -0.73300
O575        O  0.86909810  0.78588187  0.66737119    -0.73000
C576        C  0.82828637  0.75473612  0.73417275     0.78700
C577        C  0.75948686  0.83198300  0.73996628     0.79200
C578        C  0.85393595  0.86472331  0.71911655     0.78200
C579        C  0.77975610  0.85402369  0.63049912     0.78600
C580        C  0.75141259  0.76338986  0.66963175     0.79700
C581        C  0.86213906  0.77658262  0.64304048     0.78800
Zn582      Zn  0.20475786  0.20507126  0.70803223     1.49700
Zn583      Zn  0.14613864  0.19703371  0.69233955     1.49400
Zn584      Zn  0.19741433  0.19508510  0.64699757     1.49100
Zn585      Zn  0.19177556  0.14637130  0.69500168     1.49500
O586        O  0.18325134  0.18402673  0.68323395    -1.82500
O587        O  0.18376985  0.21180370  0.74344641    -0.73100
O588        O  0.12897534  0.21293052  0.65693546    -0.73000
O589        O  0.22832888  0.22537173  0.65058009    -0.72500
O590        O  0.14851277  0.23015898  0.72011272    -0.73200
O591        O  0.21454816  0.24192734  0.69196179    -0.72800
O592        O  0.16492444  0.21316065  0.62622593    -0.73300
O593        O  0.21086194  0.12693597  0.66180486    -0.72700
O594        O  0.12529810  0.16406677  0.71111094    -0.73500
O595        O  0.21497286  0.16035460  0.62891742    -0.72900
O596        O  0.15595479  0.12861535  0.70994798    -0.73300
O597        O  0.21946355  0.14602586  0.72805039    -0.73300
O598        O  0.24033761  0.18612359  0.71651538    -0.73000
C599        C  0.16475107  0.23018741  0.74129541     0.78700
C600        C  0.13965244  0.21971463  0.63305325     0.79200
C601        C  0.22991668  0.24378643  0.67011921     0.78200
C602        C  0.21978446  0.13534768  0.63769574     0.78600
C603        C  0.13203816  0.13866977  0.71710952     0.79700
C604        C  0.23955672  0.16371618  0.73083869     0.78800
C605        C  0.10320953  0.07738088  0.76076727     0.14300
C606        C  0.07991996  0.08970940  0.77423753     0.01200
C607        C  0.07291913  0.11763989  0.76765936     0.16200
C608        C  0.08892940  0.13306801  0.74810988     0.25600
C609        C  0.11268475  0.12102411  0.73483511    -0.40700
C610        C  0.11945053  0.09280229  0.74135086     0.32700
C611        C  0.06207414  0.07312332  0.79412470     0.01300
F612        F  0.05084486  0.13029694  0.78075916    -0.13000
F613        F  0.14200553  0.08002179  0.72924731    -0.13500
C614        C  0.07361849  0.06025027  0.81808439     0.16200
C615        C  0.05653313  0.04392147  0.83611782     0.25600
C616        C  0.02769253  0.04017716  0.83038312    -0.40600
C617        C  0.01615539  0.05369595  0.80681277     0.32600
C618        C  0.03315964  0.06981294  0.78884557     0.14300
F619        F  0.10144197  0.06337022  0.82393188    -0.13000
F620        F  0.98826283  0.05122984  0.80101073    -0.13500
F621        F  0.06842341  0.03078231  0.85838166    -0.15800
F622        F  0.02147277  0.08147930  0.76565723    -0.14400
F623        F  0.11008382  0.05019805  0.76615960    -0.14400
F624        F  0.08152878  0.16014381  0.74297690    -0.15800
C625        C  0.91623636  0.89786327  0.75735168     0.14300
C626        C  0.90300698  0.91858950  0.77383426     0.01200
C627        C  0.87404081  0.92321641  0.77041057     0.16200
C628        C  0.85830736  0.90670912  0.75156650     0.25600
C629        C  0.87127004  0.88511121  0.73573068    -0.40700
C630        C  0.90059539  0.88132492  0.73846643     0.32700
C631        C  0.91956724  0.93587513  0.79406811     0.01300
F632        F  0.86077751  0.94316574  0.78607447    -0.13000
F633        F  0.91421387  0.86150389  0.72294397    -0.13500
C634        C  0.92272095  0.96498362  0.78975967     0.16200
C635        C  0.93942274  0.98125813  0.80783223     0.25600
C636        C  0.95324694  0.96881772  0.83079244    -0.40600
C637        C  0.94928415  0.93980368  0.83573165     0.32600
C638        C  0.93272636  0.92341858  0.81736540     0.14300
F639        F  0.91038704  0.97751035  0.76737915    -0.13000
F640        F  0.96255798  0.92706107  0.85741807    -0.13500
F641        F  0.94227112  0.00929571  0.80268892    -0.15800
F642        F  0.92975406  0.89532421  0.82211838    -0.14400
F643        F  0.94442146  0.89374696  0.75945023    -0.14400
F644        F  0.83013231  0.91106809  0.74990424    -0.15800
C645        C  0.09131371  0.73807552  0.40361297     0.14300
C646        C  0.10490485  0.72748319  0.42744731     0.01200
C647        C  0.13235731  0.73691073  0.43348525     0.16200
C648        C  0.14626407  0.75611423  0.41559882     0.25600
C649        C  0.13285082  0.76656314  0.39128482    -0.40700
C650        C  0.10499617  0.75736135  0.38578153     0.32700
C651        C  0.08992665  0.70715424  0.44621118     0.01300
F652        F  0.14603102  0.72688181  0.45634006    -0.13000
F653        F  0.09092557  0.76655636  0.36282743    -0.13500
C654        C  0.08076448  0.68077271  0.43591470     0.16200
C655        C  0.06384436  0.66295410  0.45263155     0.25600
C656        C  0.05552683  0.67136206  0.47989637    -0.40600
C657        C  0.06601304  0.69720653  0.49062282     0.32600
C658        C  0.08302999  0.71484508  0.47396102     0.14300
F659        F  0.08767278  0.67257967  0.40934444    -0.13000
F660        F  0.05934505  0.70577387  0.51715454    -0.13500
F661        F  0.05431714  0.63827587  0.44149404    -0.15800
F662        F  0.09162807  0.74014043  0.48449074    -0.14400
F663        F  0.06452364  0.72981877  0.39766396    -0.14400
F664        F  0.17317655  0.76372521  0.42178926    -0.15800
C665        C  0.95590819  0.71934582  0.55754046     0.14300
C666        C  0.93862652  0.70696752  0.57815993     0.01200
C667        C  0.93961084  0.67765557  0.58227237     0.16200
C668        C  0.95761260  0.66089183  0.56578417     0.25600
C669        C  0.97515380  0.67327128  0.54499571    -0.40700
C670        C  0.97390300  0.70283706  0.54114019     0.32700
C671        C  0.91926763  0.72487385  0.59485090     0.01300
F672        F  0.92280326  0.66523960  0.60199820    -0.13000
F673        F  0.98975891  0.71606633  0.52116246    -0.13500
C674        C  0.89713472  0.73888283  0.58151671     0.16200
C675        C  0.87906978  0.75631661  0.59695800     0.25600
C676        C  0.88290345  0.76027523  0.62613552    -0.40600
C677        C  0.90553295  0.74654427  0.63933432     0.32600
C678        C  0.92344433  0.72894434  0.62381129     0.14300
F679        F  0.89278211  0.73532046  0.55348825    -0.13000
F680        F  0.90988610  0.74935907  0.66744650    -0.13500
F681        F  0.85781990  0.76930736  0.58325155    -0.15800
F682        F  0.94505048  0.71601881  0.63701704    -0.14400
F683        F  0.95549906  0.74767599  0.55341424    -0.14400
F684        F  0.95801001  0.63267383  0.57045592    -0.15800
C685        C  0.92139653  0.06124793  0.18285825     0.14300
C686        C  0.93296937  0.07038078  0.20861854     0.01200
C687        C  0.96056389  0.06269289  0.21522727     0.16200
C688        C  0.97603855  0.04536887  0.19702137     0.25600
C689        C  0.96425833  0.03516966  0.17167383    -0.40700
C690        C  0.93688694  0.04373369  0.16452194     0.32700
C691        C  0.91685786  0.08889072  0.22818378     0.01300
F692        F  0.97269008  0.07230436  0.23927685    -0.13000
F693        F  0.92471058  0.03427760  0.14044543    -0.13500
C694        C  0.90590854  0.07860692  0.25389710     0.16200
C695        C  0.89034345  0.09630915  0.27202168     0.25600
C696        C  0.88562540  0.12461678  0.26468358    -0.40600
C697        C  0.89793067  0.13501056  0.23951136     0.32600
C698        C  0.91315122  0.11733658  0.22148141     0.14300
F699        F  0.90964865  0.05120404  0.26102485    -0.13000
F700        F  0.89513732  0.16251035  0.23218807    -0.13500
F701        F  0.87889543  0.08545187  0.29596644    -0.15800
F702        F  0.92440947  0.12808023  0.19737884    -0.14400
F703        F  0.89486421  0.06884381  0.17578057    -0.14400
F704        F  0.00284478  0.03877849  0.20412995    -0.15800
C705        C  0.07442949  0.93413561  0.18044911     0.14300
C706        C  0.06415125  0.92414370  0.20650586     0.01200
C707        C  0.03611541  0.92967412  0.21419111     0.16200
C708        C  0.01891132  0.94560347  0.19662720     0.25600
C709        C  0.02928408  0.95619583  0.17077894    -0.40700
C710        C  0.05708962  0.94986081  0.16264041     0.32700
C711        C  0.08270115  0.90855877  0.22608692     0.01300
F712        F  0.02567147  0.92047467  0.23927343    -0.13000
F713        F  0.06795716  0.96009091  0.13815812    -0.13500
C714        C  0.10676470  0.92164796  0.23743995     0.16200
C715        C  0.12411174  0.90711179  0.25613924     0.25600
C716        C  0.11778418  0.87899781  0.26395305    -0.40600
C717        C  0.09329797  0.86614635  0.25277868     0.32600
C718        C  0.07601771  0.88078641  0.23410780     0.14300
F719        F  0.11332942  0.94872810  0.23062149    -0.13000
F720        F  0.08649568  0.83898356  0.25898751    -0.13500
F721        F  0.14718634  0.92066662  0.26645052    -0.15800
F722        F  0.05307892  0.86750318  0.22317960    -0.14400
F723        F  0.10138036  0.92887783  0.17238242    -0.14400
F724        F  0.99206642  0.95088633  0.20509316    -0.15800
C725        C  0.12186250  0.27472391  0.57813951     0.14300
C726        C  0.09250204  0.27657263  0.58103285     0.01200
C727        C  0.07840122  0.25874779  0.60016608     0.16200
C728        C  0.09349455  0.23950714  0.61640913     0.25600
C729        C  0.12305936  0.23767512  0.61372668    -0.40700
C730        C  0.13702849  0.25560541  0.59434555     0.32700
C731        C  0.07657809  0.29661924  0.56349926     0.01300
F732        F  0.04992938  0.25981925  0.60291759    -0.13000
F733        F  0.16556559  0.25572516  0.59197747    -0.13500
C734        C  0.07543795  0.29269208  0.53423242     0.16200
C735        C  0.05950929  0.31071842  0.51758277     0.25600
C736        C  0.04458567  0.33324756  0.52984995    -0.40600
C737        C  0.04656034  0.33782142  0.55905324     0.32600
C738        C  0.06228658  0.31947833  0.57579579     0.14300
F739        F  0.08902312  0.27074997  0.52188740    -0.13000
F740        F  0.03208194  0.35906704  0.57155907    -0.13500
F741        F  0.05842146  0.30594038  0.48938810    -0.15800
F742        F  0.06334178  0.32380561  0.60404920    -0.14400
F743        F  0.13596858  0.29208528  0.56011137    -0.14400
F744        F  0.07912915  0.22277288  0.63481805    -0.15800
C745        C  0.96962516  0.29057478  0.42658091     0.14300
C746        C  0.94017847  0.29219654  0.42643279     0.01200
C747        C  0.92683778  0.31389827  0.44163001     0.16200
C748        C  0.94284023  0.33341308  0.45729162     0.25600
C749        C  0.97236928  0.33133391  0.45800981    -0.40700
C750        C  0.98557137  0.30983491  0.44230231     0.32700
C751        C  0.92365843  0.27228412  0.40887599     0.01300
F752        F  0.89831920  0.31591669  0.44154879    -0.13000
F753        F  0.01406560  0.30743305  0.44224364    -0.13500
C754        C  0.91383208  0.24632903  0.41962608     0.16200
C755        C  0.89738735  0.22815268  0.40281220     0.25600
C756        C  0.89050595  0.23590690  0.37514933    -0.40600
C757        C  0.90175468  0.26125962  0.36413785     0.32600
C758        C  0.91809592  0.27922785  0.38084843     0.14300
F759        F  0.91949218  0.23903540  0.44660626    -0.13000
F760        F  0.89625579  0.26903250  0.33722932    -0.13500
F761        F  0.88683415  0.20395023  0.41406468    -0.15800
F762        F  0.92799916  0.30383724  0.36986131    -0.14400
F763        F  0.98291728  0.27020916  0.41149470    -0.14400
F764        F  0.92945926  0.35339768  0.47279544    -0.15800
C765        C  0.68423241  0.92205017  0.56154033     0.14300
C766        C  0.71273257  0.91930017  0.55378267     0.01200
C767        C  0.72291637  0.93350264  0.52996874     0.16200
C768        C  0.70522227  0.95109956  0.51469316     0.25600
C769        C  0.67691179  0.95539438  0.52326733    -0.40700
C770        C  0.66641786  0.93996334  0.54645159     0.32700
C771        C  0.73212114  0.90259200  0.57127502     0.01300
F772        F  0.75021574  0.93064210  0.52172888    -0.13000
F773        F  0.63940874  0.94317042  0.55538686    -0.13500
C774        C  0.73175520  0.87305895  0.56987884     0.16200
C775        C  0.74843059  0.85724335  0.58810214     0.25600
C776        C  0.76562063  0.87077513  0.60832438    -0.40600
C777        C  0.76693810  0.90048601  0.60863061     0.32600
C778        C  0.75046859  0.91621191  0.59012490     0.14300
F779        F  0.71480160  0.85953924  0.55117592    -0.13000
F780        F  0.78390260  0.91435909  0.62707420    -0.13500
F781        F  0.74653223  0.82867305  0.58688600    -0.15800
F782        F  0.75177193  0.94481441  0.59117051    -0.14400
F783        F  0.67399373  0.90819877  0.58446212    -0.14400
F784        F  0.71608146  0.96417587  0.49156808    -0.15800
C785        C  0.73168869  0.12349016  0.42118612     0.14300
C786        C  0.73693779  0.09468410  0.42432910     0.01200
C787        C  0.76089513  0.08292166  0.41139785     0.16200
C788        C  0.77856337  0.09957829  0.39417514     0.25600
C789        C  0.77230862  0.12813617  0.38965051    -0.40700
C790        C  0.74915875  0.14007019  0.40402744     0.32700
C791        C  0.71643433  0.07679507  0.43984538     0.01300
F792        F  0.76634540  0.05504092  0.41439173    -0.13000
F793        F  0.74285220  0.16773060  0.40064292    -0.13500
C794        C  0.69205233  0.06664471  0.42635068     0.16200
C795        C  0.67271520  0.04935490  0.44083365     0.25600
C796        C  0.67762586  0.04193879  0.46897606    -0.40600
C797        C  0.70159677  0.05296249  0.48268614     0.32600
C798        C  0.72079700  0.07029794  0.46823758     0.14300
F799        F  0.68744052  0.07287824  0.39889245    -0.13000
F800        F  0.70655588  0.04665940  0.51008606    -0.13500
F801        F  0.65015598  0.03854820  0.42690990    -0.15800
F802        F  0.74380347  0.08053362  0.48185584    -0.14400
F803        F  0.70899900  0.13533055  0.43400578    -0.14400
F804        F  0.80041957  0.08735050  0.38034255    -0.15800
C805        C  0.29047800  0.03882535  0.56504490     0.14300
C806        C  0.29821914  0.06598367  0.57406139     0.01200
C807        C  0.32516508  0.07657415  0.56701213     0.16200
C808        C  0.34374951  0.06055130  0.55038443     0.25600
C809        C  0.33545470  0.03385807  0.54017258    -0.40700
C810        C  0.30879851  0.02296734  0.54824016     0.32700
C811        C  0.27772280  0.08340324  0.59007814     0.01300
F812        F  0.33328161  0.10262523  0.57591867    -0.13000
F813        F  0.30020944  0.99698902  0.53949625    -0.13500
C814        C  0.26869147  0.07522699  0.61707369     0.16200
C815        C  0.24913642  0.09145062  0.63211149     0.25600
C816        C  0.23795726  0.11629127  0.62036421    -0.40600
C817        C  0.24665720  0.12398613  0.59288651     0.32600
C818        C  0.26635053  0.10773559  0.57800919     0.14300
F819        F  0.27940177  0.05179839  0.62920918    -0.13000
F820        F  0.23635974  0.14738813  0.58034399    -0.13500
F821        F  0.24196954  0.08317625  0.65858272    -0.15800
F822        F  0.27415615  0.11562959  0.55159533    -0.14400
F823        F  0.26463109  0.02807539  0.57162426    -0.14400
F824        F  0.36916738  0.07177232  0.54305704    -0.15800
C825        C  0.32717219  0.93422490  0.42670870     0.14300
C826        C  0.30125671  0.94550030  0.41835952     0.01200
C827        C  0.29383199  0.97264172  0.42726747     0.16200
C828        C  0.31128482  0.98771851  0.44562890     0.25600
C829        C  0.33669111  0.97599185  0.45517404    -0.40700
C830        C  0.34490511  0.94944648  0.44483244     0.32700
C831        C  0.28070567  0.92795249  0.40276934     0.01300
F832        F  0.26895548  0.98394913  0.41929034    -0.13000
F833        F  0.36917298  0.93747432  0.45360652    -0.13500
C834        C  0.26722279  0.90536421  0.41645107     0.16200
C835        C  0.24777582  0.88840672  0.40214631     0.25600
C836        C  0.24157925  0.89352969  0.37359072    -0.40600
C837        C  0.25458131  0.91691314  0.36019542     0.32600
C838        C  0.27389328  0.93399031  0.37474957     0.14300
F839        F  0.27297104  0.89972214  0.44382735    -0.13000
F840        F  0.24962552  0.92266659  0.33268354    -0.13500
F841        F  0.23537735  0.86669651  0.41628226    -0.15800
F842        F  0.28662870  0.95590818  0.36122999    -0.14400
F843        F  0.33482315  0.90807529  0.41798675    -0.14400
F844        F  0.30302629  0.01363532  0.45450490    -0.15800
C845        C  0.56007129  0.57089250  0.82013786     0.14300
C846        C  0.54940120  0.57917205  0.79380676     0.01200
C847        C  0.52121918  0.57281084  0.78742744     0.16200
C848        C  0.50438697  0.55755162  0.80638020     0.25600
C849        C  0.51540083  0.54785269  0.83214070    -0.40700
C850        C  0.54322141  0.55539880  0.83916313     0.32700
C851        C  0.56778352  0.59363234  0.77263100     0.01300
F852        F  0.51030841  0.58015538  0.76214859    -0.13000
F853        F  0.55466591  0.54642242  0.86362546    -0.13500
C854        C  0.59276263  0.58094978  0.76313158     0.16200
C855        C  0.61071262  0.59490728  0.74407626     0.25600
C856        C  0.60412384  0.62207026  0.73399679    -0.40600
C857        C  0.57812508  0.63392535  0.74229138     0.32600
C858        C  0.56029771  0.61992103  0.76145359     0.14300
F859        F  0.59987144  0.55492422  0.77240474    -0.13000
F860        F  0.57018685  0.65955708  0.73265201    -0.13500
F861        F  0.63496042  0.58198463  0.73623921    -0.15800
F862        F  0.53613647  0.63262264  0.76992091    -0.14400
F863        F  0.58704206  0.57737079  0.82720042    -0.14400
F864        F  0.47735899  0.55155531  0.79904975    -0.15800
C865        C  0.40901942  0.44045653  0.81998614     0.14300
C866        C  0.41958111  0.43390518  0.79298553     0.01200
C867        C  0.44636727  0.44379938  0.78497699     0.16200
C868        C  0.46221482  0.46037217  0.80333003     0.25600
C869        C  0.45156741  0.46762705  0.83016307    -0.40700
C870        C  0.42497179  0.45717578  0.83854445     0.32700
C871        C  0.40311395  0.41655802  0.77294784     0.01300
F872        F  0.45697652  0.43789747  0.75898934    -0.13000
F873        F  0.41399348  0.46402429  0.86412182    -0.13500
C874        C  0.37718804  0.42594698  0.76268461     0.16200
C875        C  0.36218089  0.40977501  0.74300059     0.25600
C876        C  0.37290402  0.38380208  0.73321747    -0.40600
C877        C  0.39942664  0.37499511  0.74314284     0.32600
C878        C  0.41417566  0.39112345  0.76284927     0.14300
F879        F  0.36653312  0.45095381  0.77154770    -0.13000
F880        F  0.41097506  0.35029468  0.73454623    -0.13500
F881        F  0.33699048  0.41944343  0.73394836    -0.15800
F882        F  0.43915870  0.38154362  0.77259438    -0.14400
F883        F  0.38332805  0.43063139  0.82832200    -0.14400
F884        F  0.48813679  0.46936814  0.79472572    -0.15800
C885        C  0.17930735  0.42323364  0.56489727     0.14300
C886        C  0.20797020  0.42057041  0.55777482     0.01200
C887        C  0.21887869  0.43543012  0.53470757     0.16200
C888        C  0.20179856  0.45356056  0.51949370     0.25600
C889        C  0.17328739  0.45768501  0.52733556    -0.40700
C890        C  0.16205123  0.44171005  0.54985351     0.32700
C891        C  0.22709157  0.40354181  0.57514559     0.01300
F892        F  0.24635563  0.43260299  0.52709175    -0.13000
F893        F  0.13479641  0.44473551  0.55810659    -0.13500
C894        C  0.22572041  0.37400343  0.57441662     0.16200
C895        C  0.24377191  0.35807280  0.59113144     0.25600
C896        C  0.26326285  0.37151846  0.60918673    -0.40600
C897        C  0.26510884  0.40116622  0.60915736     0.32600
C898        C  0.24729348  0.41699912  0.59213730     0.14300
F899        F  0.20675652  0.36061771  0.55763342    -0.13000
F900        F  0.28402801  0.41485302  0.62575427    -0.13500
F901        F  0.24115154  0.32952957  0.59065570    -0.15800
F902        F  0.24927541  0.44558375  0.59270524    -0.14400
F903        F  0.16835551  0.40877533  0.58712138    -0.14400
F904        F  0.21349021  0.46719660  0.49711196    -0.15800
C905        C  0.18453117  0.56778163  0.42564149     0.14300
C906        C  0.21133092  0.57533396  0.43597895     0.01200
C907        C  0.21883788  0.56689833  0.46317297     0.16200
C908        C  0.20045032  0.55027814  0.47933948     0.25600
C909        C  0.17399291  0.54176716  0.46872260    -0.40700
C910        C  0.16592241  0.55125656  0.44194788     0.32700
C911        C  0.23188116  0.59127664  0.41825810     0.01300
F912        F  0.24454763  0.57381105  0.47366625    -0.13000
F913        F  0.14073905  0.54329081  0.43093925    -0.13500
C914        C  0.24170625  0.61805699  0.42673285     0.16200
C915        C  0.26055974  0.63334511  0.40962933     0.25600
C916        C  0.27019416  0.62195777  0.38400060    -0.40600
C917        C  0.26087091  0.59495289  0.37581915     0.32600
C918        C  0.24198940  0.57966075  0.39287197     0.14300
F919        F  0.23197052  0.62994409  0.45092838    -0.13000
F920        F  0.26902208  0.58398828  0.35062389    -0.13500
F921        F  0.26812129  0.65996959  0.41724718    -0.15800
F922        F  0.23324127  0.55364548  0.38442845    -0.14400
F923        F  0.17655985  0.57610590  0.39957790    -0.14400
F924        F  0.20879695  0.54209186  0.50534623    -0.15800
C925        C  0.57305108  0.79041658  0.53765224     0.14300
C926        C  0.57975880  0.79997966  0.56475273     0.01200
C927        C  0.57094111  0.82698792  0.57327404     0.16200
C928        C  0.55477034  0.84373057  0.55518916     0.25600
C929        C  0.54693310  0.83353001  0.52839362    -0.40700
C930        C  0.55705076  0.80696220  0.51966677     0.32700
C931        C  0.59522721  0.78106223  0.58401945     0.01300
F932        F  0.57785217  0.83703512  0.59915280    -0.13000
F933        F  0.55153194  0.79676056  0.49355319    -0.13500
C934        C  0.62244007  0.77190935  0.57697654     0.16200
C935        C  0.63623633  0.75223154  0.59381534     0.25600
C936        C  0.62303232  0.74106245  0.61819592    -0.40600
C937        C  0.59560375  0.75034019  0.62508610     0.32600
C938        C  0.58194751  0.77013671  0.60820118     0.14300
F939        F  0.63579941  0.78227414  0.55377170    -0.13000
F940        F  0.58177565  0.74020936  0.64810706    -0.13500
F941        F  0.66282361  0.74470138  0.58642500    -0.15800
F942        F  0.55536470  0.77812029  0.61508236    -0.14400
F943        F  0.58127709  0.76446148  0.52885149    -0.14400
F944        F  0.54600012  0.86937225  0.56431952    -0.15800
C945        C  0.46755923  0.78261480  0.43238848     0.14300
C946        C  0.44097470  0.79082024  0.42298167     0.01200
C947        C  0.43160113  0.81827069  0.42939013     0.16200
C948        C  0.44828931  0.83689521  0.44546319     0.25600
C949        C  0.47475700  0.82843893  0.45550061    -0.40700
C950        C  0.48426455  0.80111812  0.44824204     0.32700
C951        C  0.42369413  0.77124800  0.40534741     0.01300
F952        F  0.40594897  0.82686486  0.42052066    -0.13000
F953        F  0.51013156  0.79220664  0.45598701    -0.13500
C954        C  0.41518437  0.74438030  0.41517087     0.16200
C955        C  0.39785954  0.72672935  0.39860244     0.25600
C956        C  0.38880290  0.73570635  0.37196091    -0.40600
C957        C  0.39873294  0.76196830  0.36173384     0.32600
C958        C  0.41584951  0.77943594  0.37820133     0.14300
F959        F  0.42275340  0.73569863  0.44123994    -0.13000
F960        F  0.39160776  0.77102443  0.33564221    -0.13500
F961        F  0.38882717  0.70164631  0.40919852    -0.15800
F962        F  0.42485481  0.80450996  0.36751645    -0.14400
F963        F  0.47775138  0.75677638  0.42561445    -0.14400
F964        F  0.43813426  0.86282975  0.45181529    -0.15800
C965        C  0.44804688  0.21677100  0.54693100     0.14300
C966        C  0.43450329  0.20456625  0.57022462     0.01200
C967        C  0.43830803  0.17575609  0.57571332     0.16200
C968        C  0.45597853  0.15945014  0.55836177     0.25600
C969        C  0.47016861  0.17177812  0.53517044    -0.40700
C970        C  0.46555448  0.20066334  0.52953093     0.32700
C971        C  0.41589602  0.22206377  0.58820747     0.01300
F972        F  0.42509126  0.16350872  0.59805109    -0.13000
F973        F  0.47771095  0.21350874  0.50692653    -0.13500
C974        C  0.38720337  0.22414942  0.58193552     0.16200
C975        C  0.36969313  0.24182150  0.59780527     0.25600
C976        C  0.38055028  0.25789944  0.62050816    -0.40600
C977        C  0.40955242  0.25572393  0.62661691     0.32600
C978        C  0.42700834  0.23805524  0.61052147     0.14300
F979        F  0.37613598  0.20907519  0.56023501    -0.13000
F980        F  0.42117742  0.27075644  0.64804439    -0.13500
F981        F  0.34194995  0.24266515  0.59109713    -0.15800
F982        F  0.45486534  0.23662084  0.61662567    -0.14400
F983        F  0.44422281  0.24446593  0.54098762    -0.14400
F984        F  0.45968287  0.13185743  0.56474479    -0.15800
C985        C  0.62701032  0.24001818  0.42496736     0.14300
C986        C  0.60003113  0.23021842  0.41766777     0.01200
C987        C  0.58751201  0.24040362  0.39305787     0.16200
C988        C  0.60200774  0.25945160  0.37551354     0.25600
C989        C  0.62957789  0.26864954  0.38211370    -0.40700
C990        C  0.64168549  0.25894411  0.40743271     0.32700
C991        C  0.58439879  0.21014055  0.43614502     0.01300
F992        F  0.56101870  0.23200518  0.38612488    -0.13000
F993        F  0.66814752  0.26693777  0.41494662    -0.13500
C994        C  0.57413546  0.21916428  0.46237676     0.16200
C995        C  0.55725691  0.20127668  0.47888094     0.25600
C996        C  0.55025694  0.17372426  0.46956954    -0.40600
C997        C  0.56178425  0.16424767  0.44381066     0.32600
C998        C  0.57857063  0.18238229  0.42720459     0.14300
F999        F  0.57964236  0.24578321  0.47159800    -0.13000
F1000       F  0.55584977  0.13793518  0.43404508    -0.13500
F1001       F  0.54754717  0.21120420  0.50396617    -0.15800
F1002       F  0.58887946  0.17298898  0.40216690    -0.14400
F1003       F  0.63947274  0.23066817  0.44879891    -0.14400
F1004       F  0.58898444  0.26871285  0.35197397    -0.15800
C1005       C  0.76032432  0.56955465  0.62065052     0.14300
C1006       C  0.77548303  0.58060313  0.59756336     0.01200
C1007       C  0.76983612  0.60812491  0.58861093     0.16200
C1008       C  0.74986675  0.62457765  0.60269454     0.25600
C1009       C  0.73490387  0.61390938  0.62629203    -0.40700
C1010       C  0.74030088  0.58599602  0.63491614     0.32700
C1011       C  0.79597984  0.56309064  0.58158763     0.01300
F1012       F  0.78348038  0.61904398  0.56582831    -0.13000
F1013       F  0.72648441  0.57457147  0.65733875    -0.13500
C1014       C  0.78677934  0.53824900  0.56832511     0.16200
C1015       C  0.80486119  0.52329894  0.55053572     0.25600
C1016       C  0.83267108  0.53298952  0.54522645    -0.40600
C1017       C  0.84237344  0.55712557  0.55970266     0.32600
C1018       C  0.82413920  0.57206066  0.57769234     0.14300
F1019       F  0.75970833  0.52916004  0.57144275    -0.13000
F1020       F  0.86896360  0.56710006  0.55543587    -0.13500
F1021       F  0.79477259  0.49946933  0.53807625    -0.15800
F1022       F  0.83377579  0.59566743  0.59087424    -0.14400
F1023       F  0.76528227  0.54293910  0.62971641    -0.14400
F1024       F  0.74584740  0.65129270  0.59344270    -0.15800
C1025       C  0.77231147  0.43430787  0.37951083     0.14300
C1026       C  0.77893387  0.42638701  0.40710078     0.01200
C1027       C  0.76647732  0.40204880  0.41857669     0.16200
C1028       C  0.74801934  0.38548017  0.40253731     0.25600
C1029       C  0.74177878  0.39282289  0.37443707    -0.40700
C1030       C  0.75403987  0.41767724  0.36323931     0.32700
C1031       C  0.79832816  0.44386709  0.42423740     0.01300
F1032       F  0.77210251  0.39440293  0.44548357    -0.13000
F1033       F  0.74922918  0.42550213  0.33623213    -0.13500
C1034       C  0.78964561  0.47027382  0.43416148     0.16200
C1035       C  0.80713794  0.48624675  0.45172907     0.25600
C1036       C  0.83379817  0.47610977  0.45969071    -0.40600
C1037       C  0.84285980  0.45002128  0.44888224     0.32600
C1038       C  0.82513249  0.43393118  0.43146090     0.14300
F1039       F  0.76372357  0.48012707  0.42763504    -0.13000
F1040       F  0.86819413  0.43940171  0.45632190    -0.13500
F1041       F  0.79777545  0.51156554  0.46121862    -0.15800
F1042       F  0.83389993  0.40840752  0.42199743    -0.14400
F1043       F  0.78417097  0.45784242  0.36808795    -0.14400
F1044       F  0.73648848  0.36210605  0.41460580    -0.15800
C1045       C  0.41577841  0.58615780  0.25481374     0.14300
C1046       C  0.40177484  0.57184725  0.23284107     0.01200
C1047       C  0.37268304  0.57527229  0.22974610     0.16200
C1048       C  0.35803300  0.59389877  0.24720176     0.25600
C1049       C  0.37218130  0.60955998  0.26815470    -0.40700
C1050       C  0.40105239  0.60497590  0.27238656     0.32700
C1051       C  0.41742275  0.55390172  0.21256195     0.01300
F1052       F  0.35855148  0.56093109  0.20937268    -0.13000
F1053       F  0.41531646  0.62009078  0.29209425    -0.13500
C1054       C  0.42828415  0.52803035  0.22116669     0.16200
C1055       C  0.44325110  0.51114041  0.20218609     0.25600
C1056       C  0.44832313  0.52007229  0.17411983    -0.40600
C1057       C  0.43628297  0.54557724  0.16525999     0.32600
C1058       C  0.42091120  0.56226452  0.18432679     0.14300
F1059       F  0.42424146  0.51901840  0.24803321    -0.13000
F1060       F  0.44019576  0.55495888  0.13853049    -0.13500
F1061       F  0.45279400  0.48595300  0.21151394    -0.15800
F1062       F  0.41007200  0.58706829  0.17545582    -0.14400
F1063       F  0.44393338  0.58294999  0.25830341    -0.14400
F1064       F  0.32997505  0.59732860  0.24307840    -0.15800
C1065       C  0.58540048  0.38151951  0.22112809     0.14300
C1066       C  0.58247981  0.41076405  0.22406688     0.01200
C1067       C  0.59676778  0.42486892  0.24586736     0.16200
C1068       C  0.61404028  0.40985716  0.26433568     0.25600
C1069       C  0.61703535  0.38042786  0.26141177    -0.40700
C1070       C  0.60247134  0.36647936  0.23954225     0.32700
C1071       C  0.56333921  0.42605893  0.20508395     0.01300
F1072       F  0.59376723  0.45311378  0.24938750    -0.13000
F1073       F  0.60582097  0.33841262  0.23502397    -0.13500
C1074       C  0.53412119  0.42328555  0.20885137     0.16200
C1075       C  0.51565879  0.43736285  0.19107474     0.25600
C1076       C  0.52605693  0.45431365  0.16893940    -0.40600
C1077       C  0.55535219  0.45654514  0.16467898     0.32600
C1078       C  0.57390189  0.44261519  0.18277694     0.14300
F1079       F  0.52349361  0.40731916  0.23019187    -0.13000
F1080       F  0.56598701  0.47329750  0.14396772    -0.13500
F1081       F  0.48748052  0.43459628  0.19563617    -0.15800
F1082       F  0.60213076  0.44543388  0.17871189    -0.14400
F1083       F  0.57205525  0.36759057  0.19996102    -0.14400
F1084       F  0.62768215  0.42405257  0.28513371    -0.15800
C1085       C  0.42060383  0.11672035  0.72152106     0.14300
C1086       C  0.42280332  0.08749470  0.72483810     0.01200
C1087       C  0.40874836  0.07429416  0.74753810     0.16200
C1088       C  0.39178098  0.09005682  0.76605600     0.25600
C1089       C  0.38879811  0.11922505  0.76211479    -0.40700
C1090       C  0.40380715  0.13243383  0.73994236     0.32700
C1091       C  0.44045339  0.07100423  0.70501515     0.01300
F1092       F  0.41064688  0.04598013  0.75106836    -0.13000
F1093       F  0.40164632  0.16065407  0.73571657    -0.13500
C1094       C  0.46640181  0.06069484  0.71396469     0.16200
C1095       C  0.48326133  0.04493273  0.69569212     0.25600
C1096       C  0.47433087  0.03868075  0.66799893    -0.40600
C1097       C  0.44861614  0.04984135  0.65872192     0.32600
C1098       C  0.43186640  0.06599562  0.67710284     0.14300
F1099       F  0.47549521  0.06603384  0.74052443    -0.13000
F1100       F  0.43908212  0.04413616  0.63240083    -0.13500
F1101       F  0.50846375  0.03577279  0.70526590    -0.15800
F1102       F  0.40687908  0.07607918  0.66794748    -0.14400
F1103       F  0.43462118  0.13001355  0.70026239    -0.14400
F1104       F  0.37689762  0.07659666  0.78658776    -0.15800
C1105       C  0.57952496  0.87784411  0.72667397     0.14300
C1106       C  0.58755751  0.90549059  0.71979141     0.01200
C1107       C  0.61091845  0.91780084  0.73313478     0.16200
C1108       C  0.62647691  0.90249610  0.75276603     0.25600
C1109       C  0.61886931  0.87442366  0.75955302    -0.40700
C1110       C  0.59496488  0.86240363  0.74626206     0.32700
C1111       C  0.56992162  0.92254042  0.70088966     0.01300
F1112       F  0.61845414  0.94487466  0.72733609    -0.13000
F1113       F  0.58666011  0.83547087  0.75168478    -0.13500
C1114       C  0.54704862  0.93709127  0.71230522     0.16200
C1115       C  0.53090050  0.95461385  0.69545927     0.25600
C1116       C  0.53742748  0.95833327  0.66652322    -0.40600
C1117       C  0.55994697  0.94281764  0.65486430     0.32600
C1118       C  0.57607139  0.92506929  0.67198985     0.14300
F1119       F  0.54062207  0.93469410  0.74012635    -0.13000
F1120       F  0.56695286  0.94538994  0.62721590    -0.13500
F1121       F  0.50886365  0.96801065  0.70785204    -0.15800
F1122       F  0.59793584  0.91067633  0.66050120    -0.14400
F1123       F  0.55659012  0.86580640  0.71441182    -0.14400
F1124       F  0.64899212  0.91528773  0.76503014    -0.15800
C1125       C  0.78427543  0.06359346  0.03671264     0.14300
C1126       C  0.79414964  0.07483944  0.06209489     0.01200
C1127       C  0.82163342  0.06882823  0.07092158     0.16200
C1128       C  0.83893049  0.05121852  0.05467680     0.25600
C1129       C  0.82888212  0.03943799  0.02933462    -0.40700
C1130       C  0.80145686  0.04626012  0.02036273     0.32700
C1131       C  0.77568361  0.09322933  0.07898409     0.01300
F1132       F  0.83139045  0.07943644  0.09563405    -0.13000
F1133       F  0.79116388  0.03634411  0.99557761    -0.13500
C1134       C  0.75244123  0.08183187  0.09362955     0.16200
C1135       C  0.73484345  0.09937585  0.10949785     0.25600
C1136       C  0.73993902  0.12863619  0.11043554    -0.40600
C1137       C  0.76284429  0.14003783  0.09506725     0.32600
C1138       C  0.78067920  0.12239749  0.07963549     0.14300
F1139       F  0.74714864  0.05364497  0.09294914    -0.13000
F1140       F  0.76887048  0.16807642  0.09614990    -0.13500
F1141       F  0.71288521  0.08779874  0.12402401    -0.15800
F1142       F  0.80294251  0.13372427  0.06537189    -0.14400
F1143       F  0.75791671  0.06958635  0.02767638    -0.14400
F1144       F  0.86499661  0.04492759  0.06428382    -0.15800
C1145       C  0.82485899  0.92391372  0.92748417     0.14300
C1146       C  0.79565679  0.92186725  0.93228266     0.01200
C1147       C  0.78335415  0.93771865  0.95388475     0.16200
C1148       C  0.79970725  0.95586550  0.97024850     0.25600
C1149       C  0.82905054  0.95870826  0.96534221    -0.40700
C1150       C  0.84152007  0.94211383  0.94396164     0.32700
C1151       C  0.77729066  0.90431428  0.91423888     0.01300
F1152       F  0.75513195  0.93613299  0.95868547    -0.13000
F1153       F  0.86959620  0.94392680  0.93846446    -0.13500
C1154       C  0.76447243  0.87981481  0.92499643     0.16200
C1155       C  0.74486617  0.86465055  0.90891025     0.25600
C1156       C  0.73753696  0.87386680  0.88168503    -0.40600
C1157       C  0.75038676  0.89878560  0.87119821     0.32600
C1158       C  0.77008940  0.91373315  0.88733092     0.14300
F1159       F  0.77097332  0.87062354  0.95119615    -0.13000
F1160       F  0.74443806  0.90855349  0.84507883    -0.13500
F1161       F  0.73310023  0.84097203  0.92011615    -0.15800
F1162       F  0.78180837  0.93780036  0.87689037    -0.14400
F1163       F  0.83715449  0.90840085  0.90677346    -0.14400
F1164       F  0.78645677  0.97065853  0.99090083    -0.15800
C1165       C  0.23281206  0.92146829  0.10607298     0.14300
C1166       C  0.22322074  0.90900278  0.08098723     0.01200
C1167       C  0.23352543  0.88247891  0.07303747     0.16200
C1168       C  0.25271928  0.86838007  0.09003673     0.25600
C1169       C  0.26195337  0.88041841  0.11569051    -0.40700
C1170       C  0.25192514  0.90737285  0.12327959     0.32700
C1171       C  0.20326193  0.92403970  0.06254583     0.01300
F1172       F  0.22438267  0.86981322  0.04903793    -0.13000
F1173       F  0.26028715  0.92011402  0.14751088    -0.13500
C1174       C  0.21106917  0.93039930  0.03470913     0.16200
C1175       C  0.19307155  0.94566163  0.01749955     0.25600
C1176       C  0.16685528  0.95517440  0.02780461    -0.40600
C1177       C  0.15851890  0.94784298  0.05534602     0.32600
C1178       C  0.17664581  0.93246187  0.07261110     0.14300
F1179       F  0.23669819  0.92275333  0.02447482    -0.13000
F1180       F  0.13353333  0.95675428  0.06606285    -0.13500
F1181       F  0.20159609  0.95153129  0.99075949    -0.15800
F1182       F  0.16836186  0.92605121  0.09927984    -0.14400
F1183       F  0.22385106  0.94750118  0.11380386    -0.14400
F1184       F  0.26146112  0.84248718  0.08159971    -0.15800
C1185       C  0.17773152  0.06195971  0.91972570     0.14300
C1186       C  0.20628912  0.06544967  0.92705778     0.01200
C1187       C  0.21582149  0.05358577  0.95216306     0.16200
C1188       C  0.19760924  0.03782086  0.96927637     0.25600
C1189       C  0.16912586  0.03321285  0.96168597    -0.40700
C1190       C  0.15923454  0.04608300  0.93696251     0.32700
C1191       C  0.22660523  0.08116446  0.90879537     0.01300
F1192       F  0.24322071  0.05662454  0.95979184    -0.13000
F1193       F  0.13202267  0.04258352  0.92895483    -0.13500
C1194       C  0.24000269  0.10575539  0.91888373     0.16200
C1195       C  0.26000565  0.12004758  0.90225519     0.25600
C1196       C  0.26721602  0.10991671  0.87534266    -0.40600
C1197       C  0.25394958  0.08527242  0.86525283     0.32600
C1198       C  0.23395500  0.07087942  0.88192605     0.14300
F1199       F  0.23289462  0.11650527  0.94448073    -0.13000
F1200       F  0.25954321  0.07582973  0.83878650    -0.13500
F1201       F  0.27110576  0.14479811  0.91170964    -0.15800
F1202       F  0.22166084  0.04697669  0.87181325    -0.14400
F1203       F  0.16779195  0.07392444  0.89588373    -0.14400
F1204       F  0.20818443  0.02695397  0.99338573    -0.15800
C1205       C  0.59182839  0.11985834  0.27129100     0.14300
C1206       C  0.59804075  0.09111397  0.27389211     0.01200
C1207       C  0.61970535  0.07963591  0.25718677     0.16200
C1208       C  0.63496207  0.09665027  0.23828551     0.25600
C1209       C  0.62885215  0.12560712  0.23568533    -0.40700
C1210       C  0.60699695  0.13692345  0.25247427     0.32700
C1211       C  0.58056710  0.07287867  0.29262320     0.01300
F1212       F  0.62632157  0.05193491  0.25942280    -0.13000
F1213       F  0.60062001  0.16474884  0.25134569    -0.13500
C1214       C  0.56505345  0.05045126  0.28103166     0.16200
C1215       C  0.54667309  0.03449205  0.29779816     0.25600
C1216       C  0.54311970  0.04063959  0.32678810    -0.40600
C1217       C  0.55937317  0.06270554  0.33858513     0.32600
C1218       C  0.57790657  0.07866184  0.32162348     0.14300
F1219       F  0.56689648  0.04459479  0.25305567    -0.13000
F1220       F  0.55670794  0.06954311  0.36625560    -0.13500
F1221       F  0.53225869  0.01301933  0.28532447    -0.15800
F1222       F  0.59312888  0.09994322  0.33346098    -0.14400
F1223       F  0.57063688  0.13139196  0.28671189    -0.14400
F1224       F  0.65572627  0.08467825  0.22260462    -0.15800
C1225       C  0.38279373  0.93673183  0.26062589     0.14300
C1226       C  0.40799708  0.92748909  0.27276330     0.01200
C1227       C  0.41805735  0.90062676  0.26564897     0.16200
C1228       C  0.40296157  0.88301953  0.24730210     0.25600
C1229       C  0.37718977  0.89181674  0.23555801    -0.40700
C1230       C  0.36753783  0.91915623  0.24227075     0.32700
C1231       C  0.42432516  0.94600207  0.29224092     0.01300
F1232       F  0.44274429  0.89142119  0.27642229    -0.13000
F1233       F  0.34302963  0.92885404  0.23155912    -0.13500
C1234       C  0.43045162  0.93721453  0.31981319     0.16200
C1235       C  0.44785770  0.95366645  0.33729242     0.25600
C1236       C  0.45968482  0.97919111  0.32744143    -0.40600
C1237       C  0.45242690  0.98845834  0.30018180     0.32600
C1238       C  0.43502922  0.97203339  0.28284604     0.14300
F1239       F  0.41987520  0.91241565  0.32968239    -0.13000
F1240       F  0.46246328  0.01335626  0.28997833    -0.13500
F1241       F  0.45413839  0.94390019  0.36332193    -0.15800
F1242       F  0.42961500  0.98104645  0.25632386    -0.14400
F1243       F  0.37250734  0.96258006  0.26717047    -0.14400
F1244       F  0.41342894  0.85702405  0.24173112    -0.15800
C1245       C  0.56811423  0.67413647  0.93389454     0.14300
C1246       C  0.56370490  0.70345136  0.93307324     0.01200
C1247       C  0.54230716  0.71498618  0.94984720     0.16200
C1248       C  0.52566896  0.69776958  0.96724452     0.25600
C1249       C  0.53000622  0.66823689  0.96850365    -0.40700
C1250       C  0.55137435  0.65665937  0.95130397     0.32700
C1251       C  0.58161604  0.72231147  0.91523857     0.01300
F1252       F  0.53789710  0.74325179  0.94988984    -0.13000
F1253       F  0.55651888  0.62855779  0.95164743    -0.13500
C1254       C  0.56979330  0.73788708  0.89317302     0.16200
C1255       C  0.58663455  0.75592933  0.87657922     0.25600
C1256       C  0.61569949  0.75913081  0.88195864    -0.40600
C1257       C  0.62726286  0.74389273  0.90463084     0.32600
C1258       C  0.61042643  0.72567211  0.92092304     0.14300
F1259       F  0.54192267  0.73520850  0.88736229    -0.13000
F1260       F  0.65515896  0.74577700  0.91061258    -0.13500
F1261       F  0.57442655  0.77014296  0.85517852    -0.15800
F1262       F  0.62227893  0.71140922  0.94250828    -0.14400
F1263       F  0.58860276  0.66241319  0.91769172    -0.14400
F1264       F  0.50518777  0.71037941  0.98278921    -0.15800
C1265       C  0.41969790  0.67829343  0.06893885     0.14300
C1266       C  0.43219947  0.70247137  0.08093858     0.01200
C1267       C  0.46125050  0.70713100  0.07760953     0.16200
C1268       C  0.47737142  0.68872506  0.06130438     0.25600
C1269       C  0.46475526  0.66517075  0.04817350    -0.40700
C1270       C  0.43593716  0.65959348  0.05280681     0.32700
C1271       C  0.41502968  0.72348845  0.09618816     0.01300
F1272       F  0.47377611  0.73025750  0.08915822    -0.13000
F1273       F  0.42318084  0.63708945  0.04035416    -0.13500
C1274       C  0.41945378  0.72843475  0.12494094     0.16200
C1275       C  0.40386851  0.74884705  0.13931793     0.25600
C1276       C  0.38349951  0.76489888  0.12513250    -0.40600
C1277       C  0.37939930  0.76004363  0.09607876     0.32600
C1278       C  0.39506322  0.73953127  0.08179063     0.14300
F1279       F  0.43843833  0.71289754  0.13929546    -0.13000
F1280       F  0.36011660  0.77495153  0.08144735    -0.13500
F1281       F  0.40790130  0.75185929  0.16745412    -0.15800
F1282       F  0.39095256  0.73548529  0.05377983    -0.14400
F1283       F  0.39169249  0.67315676  0.07240898    -0.14400
F1284       F  0.50531001  0.69428182  0.05781302    -0.15800
C1285       C  0.61740041  0.27784290  0.07935803     0.14300
C1286       C  0.59093799  0.28577435  0.08974242     0.01200
C1287       C  0.58150944  0.27520140  0.11574179     0.16200
C1288       C  0.59822854  0.25669903  0.13115592     0.25600
C1289       C  0.62477116  0.24816095  0.12067729    -0.40700
C1290       C  0.63419843  0.25928285  0.09458441     0.32700
C1291       C  0.57144276  0.30144257  0.07157126     0.01300
F1292       F  0.55577513  0.28247652  0.12596101    -0.13000
F1293       F  0.65973264  0.25237235  0.08362447    -0.13500
C1294       C  0.55088481  0.28626379  0.05691975     0.16200
C1295       C  0.53222336  0.29999126  0.03924984     0.25600
C1296       C  0.53324761  0.32967567  0.03597955    -0.40600
C1297       C  0.55430918  0.34490851  0.05069710     0.32600
C1298       C  0.57334335  0.33081926  0.06821997     0.14300
F1299       F  0.54908069  0.25777242  0.05952974    -0.13000
F1300       F  0.55676166  0.37332164  0.04805255    -0.13500
F1301       F  0.51324954  0.28370929  0.02540316    -0.15800
F1302       F  0.59350624  0.34581954  0.08200675    -0.14400
F1303       F  0.62661603  0.28745139  0.05396722    -0.14400
F1304       F  0.58822884  0.24714426  0.15626805    -0.15800
C1305       C  0.42356829  0.30924057  0.93031890     0.14300
C1306       C  0.42313790  0.28045697  0.93756276     0.01200
C1307       C  0.43776377  0.27179068  0.96138391     0.16200
C1308       C  0.45291825  0.29130822  0.97754650     0.25600
C1309       C  0.45492767  0.32014148  0.96971979    -0.40700
C1310       C  0.43950762  0.32888664  0.94605423     0.32700
C1311       C  0.40709455  0.25939550  0.92065878     0.01300
F1312       F  0.43709058  0.24427077  0.96926732    -0.13000
F1313       F  0.44028306  0.35621675  0.93769574    -0.13500
C1314       C  0.42117497  0.23993491  0.90317039     0.16200
C1315       C  0.40583602  0.22133396  0.88582231     0.25600
C1316       C  0.37625330  0.22186315  0.88591806    -0.40600
C1317       C  0.36228038  0.24015313  0.90469621     0.32600
C1318       C  0.37755580  0.25866411  0.92197038     0.14300
F1319       F  0.44975967  0.23991987  0.90191879    -0.13000
F1320       F  0.33367298  0.24084216  0.90542819    -0.13500
F1321       F  0.41980927  0.20435239  0.86749034    -0.15800
F1322       F  0.36350742  0.27631493  0.93960439    -0.14400
F1323       F  0.40901936  0.31818381  0.90757351    -0.14400
F1324       F  0.46517697  0.28167290  0.00126724    -0.15800
C1325       C  0.06499176  0.81498104  0.06452213     0.14300
C1326       C  0.05376008  0.78857698  0.07239252     0.01200
C1327       C  0.02638212  0.78110805  0.06443275     0.16200
C1328       C  0.01048372  0.79954634  0.04834328     0.25600
C1329       C  0.02185814  0.82577463  0.03962120    -0.40700
C1330       C  0.04916906  0.83348267  0.04816243     0.32700
C1331       C  0.07011746  0.76936812  0.09011129     0.01300
F1332       F  0.01497779  0.75598755  0.07246258    -0.13000
F1333       F  0.06103943  0.85819074  0.03958418    -0.13500
C1334       C  0.07485636  0.77651883  0.11828618     0.16200
C1335       C  0.09184846  0.75965821  0.13490624     0.25600
C1336       C  0.10465223  0.73537965  0.12352865    -0.40600
C1337       C  0.09846821  0.72722936  0.09575625     0.32600
C1338       C  0.08124204  0.74420627  0.07908886     0.14300
F1339       F  0.06340538  0.80021462  0.12951925    -0.13000
F1340       F  0.11054693  0.70402026  0.08423351    -0.13500
F1341       F  0.09645831  0.76753960  0.16203789    -0.15800
F1342       F  0.07650079  0.73685935  0.05185941    -0.14400
F1343       F  0.09156661  0.82246525  0.07211876    -0.14400
F1344       F  0.98387769  0.79162797  0.04121806    -0.15800
C1345       C  0.95304102  0.77761318  0.93954944     0.14300
C1346       C  0.92638294  0.78489322  0.92960831     0.01200
C1347       C  0.91665499  0.81259364  0.93420273     0.16200
C1348       C  0.93316942  0.83238386  0.94920939     0.25600
C1349       C  0.95962316  0.82469293  0.95983358    -0.40700
C1350       C  0.96955264  0.79721626  0.95404340     0.32700
C1351       C  0.90945856  0.76339834  0.91400612     0.01300
F1352       F  0.89116716  0.82042209  0.92423811    -0.13000
F1353       F  0.99532937  0.78891120  0.96290767    -0.13500
C1354       C  0.88267757  0.75468161  0.92374372     0.16200
C1355       C  0.86703067  0.73440939  0.90870100     0.25600
C1356       C  0.87806059  0.72228265  0.88394630    -0.40600
C1357       C  0.90512293  0.73035253  0.87475579     0.32600
C1358       C  0.92069129  0.75063619  0.88962774     0.14300
F1359       F  0.87154985  0.76604477  0.94758733    -0.13000
F1360       F  0.91569648  0.71993227  0.85023030    -0.13500
F1361       F  0.84047577  0.72774736  0.91739542    -0.15800
F1362       F  0.94629321  0.75882513  0.87945062    -0.14400
F1363       F  0.96285197  0.75100688  0.93596576    -0.14400
F1364       F  0.92280419  0.85849664  0.95432114    -0.15800
C1365       C  0.88777392  0.56801921  0.74338702     0.14300
C1366       C  0.91381755  0.57838338  0.73310516     0.01200
C1367       C  0.92365360  0.60476276  0.74287246     0.16200
C1368       C  0.90719134  0.62097932  0.76135263     0.25600
C1369       C  0.88096061  0.61085514  0.77102249    -0.40700
C1370       C  0.87160026  0.58406835  0.76225229     0.32700
C1371       C  0.93061712  0.56174854  0.71226763     0.01300
F1372       F  0.94905728  0.61503893  0.73419365    -0.13000
F1373       F  0.84590540  0.57422666  0.77057694    -0.13500
C1374       C  0.94002814  0.57380279  0.68667110     0.16200
C1375       C  0.95680010  0.55829580  0.66774320     0.25600
C1376       C  0.96432694  0.53042002  0.67400001    -0.40600
C1377       C  0.95411044  0.51816327  0.69914152     0.32600
C1378       C  0.93763391  0.53364438  0.71805642     0.14300
F1379       F  0.93306968  0.60066259  0.68002091    -0.13000
F1380       F  0.96033119  0.49105610  0.70563605    -0.13500
F1381       F  0.96675259  0.57097494  0.64403125    -0.15800
F1382       F  0.92937560  0.52136778  0.74260118    -0.14400
F1383       F  0.87722827  0.54301200  0.73398170    -0.14400
F1384       F  0.91626266  0.64717543  0.76882573    -0.15800
C1385       C  0.07623923  0.39935168  0.74969286     0.14300
C1386       C  0.09028966  0.41643061  0.72976607     0.01200
C1387       C  0.11982576  0.41739377  0.72940430     0.16200
C1388       C  0.13515458  0.40051151  0.74773811     0.25600
C1389       C  0.12122125  0.38276312  0.76717277    -0.40700
C1390       C  0.09164046  0.38272297  0.76844652     0.32700
C1391       C  0.07433131  0.43344130  0.70934884     0.01300
F1392       F  0.13379947  0.43395553  0.71054285    -0.13000
F1393       F  0.07772599  0.36531770  0.78655755    -0.13500
C1394       C  0.07270432  0.46273560  0.71291131     0.16200
C1395       C  0.05713904  0.47894432  0.69417904     0.25600
C1396       C  0.04322548  0.46621541  0.67125064    -0.40600
C1397       C  0.04582208  0.43700230  0.66696149     0.32600
C1398       C  0.06114170  0.42067357  0.68604565     0.14300
F1399       F  0.08555130  0.47551989  0.73507127    -0.13000
F1400       F  0.03225917  0.42410413  0.64530932    -0.13500
F1401       F  0.05519384  0.50715848  0.69872281    -0.15800
F1402       F  0.06282764  0.39237404  0.68204629    -0.14400
F1403       F  0.04764763  0.39842803  0.75058380    -0.14400
F1404       F  0.16374115  0.40080985  0.74596524    -0.15800
C1405       C  0.92689396  0.23958477  0.11898573     0.14300
C1406       C  0.91799345  0.22727746  0.09355709     0.01200
C1407       C  0.89300652  0.23687551  0.08122172     0.16200
C1408       C  0.87663971  0.25754324  0.09458871     0.25600
C1409       C  0.88495342  0.26921853  0.12067888    -0.40700
C1410       C  0.91080443  0.26043046  0.13224079     0.32700
C1411       C  0.93549199  0.20550666  0.07922436     0.01300
F1412       F  0.88445027  0.22627901  0.05606088    -0.13000
F1413       F  0.92035467  0.27137426  0.15690005    -0.13500
C1414       C  0.92408247  0.17903179  0.07145626     0.16200
C1415       C  0.94017857  0.15975647  0.05566466     0.25600
C1416       C  0.96791463  0.16671659  0.04744596    -0.40600
C1417       C  0.97974473  0.19243145  0.05688022     0.32600
C1418       C  0.96370353  0.21162966  0.07233430     0.14300
F1419       F  0.89715909  0.17211322  0.07865932    -0.13000
F1420       F  0.00677642  0.19953436  0.05020655    -0.13500
F1421       F  0.92808426  0.13520227  0.04697617    -0.15800
F1422       F  0.97538569  0.23696163  0.07923379    -0.14400
F1423       F  0.95088211  0.23080167  0.13153530    -0.14400
F1424       F  0.85222702  0.26540433  0.08226859    -0.15800
C1425       C  0.03336777  0.21656319  0.94225280     0.14300
C1426       C  0.05881842  0.20818705  0.92983356     0.01200
C1427       C  0.06822223  0.18041176  0.93408610     0.16200
C1428       C  0.05274900  0.16159117  0.95113320     0.25600
C1429       C  0.02760239  0.17026459  0.96428038    -0.40700
C1430       C  0.01787085  0.19787391  0.95912783     0.32700
C1431       C  0.07501800  0.22815248  0.91170209     0.01300
F1432       F  0.09284910  0.17176798  0.92233260    -0.13000
F1433       F  0.99310113  0.20691206  0.97029566    -0.13500
C1434       C  0.08561948  0.25390222  0.92244357     0.16200
C1435       C  0.10207509  0.27189637  0.90532706     0.25600
C1436       C  0.10816445  0.26427991  0.87731128    -0.40600
C1437       C  0.09628477  0.23921824  0.86636128     0.32600
C1438       C  0.07993346  0.22140351  0.88333855     0.14300
F1439       F  0.08115526  0.26093871  0.94984985    -0.13000
F1440       F  0.10112282  0.23160191  0.83915867    -0.13500
F1441       F  0.11350402  0.29568967  0.91661736    -0.15800
F1442       F  0.06906993  0.19730694  0.87210457    -0.14400
F1443       F  0.02325526  0.24284285  0.93770038    -0.14400
F1444       F  0.06297053  0.13535973  0.95562841    -0.15800
C1445       C  0.06739666  0.57708351  0.31769586     0.14300
C1446       C  0.07100818  0.56853219  0.28942769     0.01200
C1447       C  0.06026997  0.54223268  0.28104005     0.16200
C1448       C  0.04566786  0.52506510  0.30010867     0.25600
C1449       C  0.04086566  0.53387518  0.32828462    -0.40700
C1450       C  0.05249464  0.55992792  0.33696449     0.32700
C1451       C  0.08546304  0.58696378  0.26834617     0.01300
F1452       F  0.06308617  0.53345167  0.25390635    -0.13000
F1453       F  0.04875822  0.56927317  0.36376866    -0.13500
C1454       C  0.10886557  0.57707869  0.25288481     0.16200
C1455       C  0.12248150  0.59443548  0.23307150     0.25600
C1456       C  0.11309968  0.62199929  0.22849445    -0.40600
C1457       C  0.08939146  0.63170826  0.24343285     0.32600
C1458       C  0.07550458  0.61425972  0.26296614     0.14300
F1459       F  0.11939711  0.55108081  0.25797491    -0.13000
F1460       F  0.08037419  0.65854683  0.23985169    -0.13500
F1461       F  0.14607262  0.58506922  0.21981897    -0.15800
F1462       F  0.05247908  0.62412349  0.27684001    -0.14400
F1463       F  0.07827833  0.60210772  0.32663986    -0.14400
F1464       F  0.03603151  0.49976505  0.29055610    -0.15800
C1465       C  0.91924265  0.38396458  0.27517403     0.14300
C1466       C  0.91522119  0.41292140  0.27929274     0.01200
C1467       C  0.89553355  0.42709273  0.26270446     0.16200
C1468       C  0.87995601  0.41244132  0.24228284     0.25600
C1469       C  0.88379302  0.38321128  0.23810552    -0.40700
C1470       C  0.90381780  0.36923958  0.25486789     0.32700
C1471       C  0.93337740  0.42862695  0.29922908     0.01300
F1472       F  0.89177322  0.45527212  0.26594712    -0.13000
F1473       F  0.90813061  0.34107117  0.25231985    -0.13500
C1474       C  0.96239984  0.43053321  0.29378784     0.16200
C1475       C  0.97982057  0.44642147  0.31136839     0.25600
C1476       C  0.96858334  0.46084452  0.33480328    -0.40600
C1477       C  0.93969638  0.45786434  0.34110766     0.32600
C1478       C  0.92213473  0.44196093  0.32327801     0.14300
F1479       F  0.97373704  0.41776314  0.27075413    -0.13000
F1480       F  0.92826594  0.47147566  0.36358041    -0.13500
F1481       F  0.00777973  0.44800148  0.30522010    -0.15800
F1482       F  0.89417408  0.43982668  0.32924766    -0.14400
F1483       F  0.93802047  0.36981556  0.29116096    -0.14400
F1484       F  0.86104550  0.42693975  0.22679470    -0.15800
C1485       C  0.26232070  0.61895516  0.07591959     0.14300
C1486       C  0.26170827  0.58977509  0.08118253     0.01200
C1487       C  0.24159558  0.57905181  0.10051606     0.16200
C1488       C  0.22292030  0.59712618  0.11459935     0.25600
C1489       C  0.22436863  0.62634255  0.11017249    -0.40700
C1490       C  0.24405091  0.63706248  0.09049329     0.32700
C1491       C  0.28114767  0.57029334  0.06587847     0.01300
F1492       F  0.24088791  0.55113013  0.10675885    -0.13000
F1493       F  0.24600223  0.66527242  0.08590065    -0.13500
C1494       C  0.31068463  0.57410177  0.06612301     0.16200
C1495       C  0.32850441  0.55519646  0.05170262     0.25600
C1496       C  0.31715914  0.53193488  0.03683060    -0.40600
C1497       C  0.28741013  0.52840337  0.03689592     0.32600
C1498       C  0.26988738  0.54737766  0.05090982     0.14300
F1499       F  0.32236169  0.59587210  0.08072373    -0.13000
F1500       F  0.27468375  0.50658338  0.02325648    -0.13500
F1501       F  0.35677061  0.55977449  0.05237176    -0.15800
F1502       F  0.24153394  0.54354826  0.04934138    -0.14400
F1503       F  0.28066667  0.62996464  0.05672460    -0.14400
F1504       F  0.20483272  0.58629929  0.13412778    -0.15800
C1505       C  0.30501666  0.43154133  0.92917416     0.14300
C1506       C  0.28115255  0.41919448  0.94219220     0.01200
C1507       C  0.27787460  0.42160473  0.97151023     0.16200
C1508       C  0.29725846  0.43726640  0.98732103     0.25600
C1509       C  0.32042417  0.45075305  0.97417982    -0.40700
C1510       C  0.32456710  0.44713518  0.94507147     0.32700
C1511       C  0.25951776  0.40412785  0.92521409     0.01300
F1512       F  0.25514528  0.40988472  0.98468754    -0.13000
F1513       F  0.34644749  0.46020200  0.93175109    -0.13500
C1514       C  0.25319239  0.37558186  0.93045733     0.16200
C1515       C  0.23450583  0.36079168  0.91303928     0.25600
C1516       C  0.22164762  0.37429901  0.89027494    -0.40600
C1517       C  0.22673477  0.40315489  0.88586918     0.32600
C1518       C  0.24550505  0.41800837  0.90326180     0.14300
F1519       F  0.26642733  0.36156560  0.95137179    -0.13000
F1520       F  0.21507553  0.41641757  0.86355479    -0.13500
F1521       F  0.23023476  0.33276086  0.91730403    -0.15800
F1522       F  0.25062932  0.44575833  0.89819432    -0.14400
F1523       F  0.30909364  0.42890715  0.90095641    -0.14400
F1524       F  0.29292302  0.43998766  0.01550739    -0.15800
C1525       C  0.70756526  0.53279959  0.93451964     0.14300
C1526       C  0.70053191  0.56013449  0.92628387     0.01200
C1527       C  0.67385681  0.57076233  0.93387763     0.16200
C1528       C  0.65499015  0.55458881  0.95037871     0.25600
C1529       C  0.66246677  0.52743139  0.95943162    -0.40700
C1530       C  0.68880707  0.51661119  0.95066733     0.32700
C1531       C  0.72070007  0.57694488  0.90884326     0.01300
F1532       F  0.66640475  0.59711707  0.92591006    -0.13000
F1533       F  0.69651864  0.49003649  0.95746047    -0.13500
C1534       C  0.71328098  0.58479442  0.88149164     0.16200
C1535       C  0.73179963  0.60083430  0.86493722     0.25600
C1536       C  0.75826269  0.60971206  0.87537729    -0.40600
C1537       C  0.76631715  0.60076645  0.90234056     0.32600
C1538       C  0.74765486  0.58447208  0.91894502     0.14300
F1539       F  0.68804248  0.57671180  0.87066400    -0.13000
F1540       F  0.79154874  0.60887233  0.91312937    -0.13500
F1541       F  0.72368080  0.60784438  0.83850641    -0.15800
F1542       F  0.75550968  0.57680650  0.94524885    -0.14400
F1543       F  0.73257717  0.52150893  0.92649243    -0.14400
F1544       F  0.63000376  0.56593121  0.95834266    -0.15800
C1545       C  0.67205620  0.43834131  0.08009510     0.14300
C1546       C  0.69724750  0.42725760  0.06891583     0.01200
C1547       C  0.70310774  0.43067268  0.04013454     0.16200
C1548       C  0.68470358  0.44543073  0.02296863     0.25600
C1549       C  0.66005639  0.45766545  0.03414741    -0.40700
C1550       C  0.65351760  0.45339941  0.06280363     0.32700
C1551       C  0.71776751  0.41212590  0.08678832     0.01300
F1552       F  0.72726432  0.42040033  0.02871406    -0.13000
F1553       F  0.62993389  0.46477858  0.07430808    -0.13500
C1554       C  0.72514669  0.38427237  0.08018956     0.16200
C1555       C  0.74587388  0.37038274  0.09550583     0.25600
C1556       C  0.75980489  0.38398241  0.11811752    -0.40600
C1557       C  0.75237549  0.41206521  0.12458841     0.32600
C1558       C  0.73160994  0.42594451  0.10905371     0.14300
F1559       F  0.71192244  0.37029164  0.05896362    -0.13000
F1560       F  0.76517640  0.42623302  0.14591799    -0.13500
F1561       F  0.75159332  0.34323542  0.08848680    -0.15800
F1562       F  0.72544274  0.45315152  0.11537102    -0.14400
F1563       F  0.66551702  0.43468325  0.10773173    -0.14400
F1564       F  0.69120267  0.44785445  0.99520127    -0.15800
loop_ 
_geom_bond_atom_site_label_1 
_geom_bond_atom_site_label_2 
_geom_bond_distance 
_geom_bond_site_symmetry_2 
_ccdc_geom_bond_type 
Zn1           O5   1.975       .  S
Zn1           O6   2.050       .  S
Zn1          O10   2.056       .  S
Zn1          O17   2.048       .  S
Zn2           O5   1.992       .  S
Zn2           O7   2.057       .  S
Zn2           O9   2.059       .  S
Zn2          O13   2.058       .  S
Zn3           O5   1.992   1_556  S
Zn3           O8   2.052       .  S
Zn3          O11   2.033       .  S
Zn3          O14   2.033       .  S
Zn4           O5   1.992   1_556  S
Zn4          O12   2.061       .  S
Zn4          O15   2.055       .  S
Zn4          O16   2.079       .  S
O6           C18   1.278       .  A
O7           C19   1.279       .  A
O8           C20   1.276       .  A
O9           C18   1.278       .  A
O10          C20   1.279   1_554  A
O11          C19   1.274   1_556  A
O12          C21   1.280       .  A
O13          C22   1.278       .  A
O14          C21   1.275       .  A
O15          C22   1.279   1_556  A
O16          C23   1.280       .  A
O17          C23   1.278   1_554  A
C18         C353   1.489       .  S
C19         C229   1.483       .  S
C20          C97   1.489       .  S
C21         C427   1.484       .  S
C22         C101   1.489       .  S
C23         C225   1.493       .  S
Zn24         O28   1.987   1_565  S
Zn24         O29   2.048       .  S
Zn24         O33   2.050       .  S
Zn24         O40   2.075       .  S
Zn25         O28   1.986       .  S
Zn25         O30   2.056       .  S
Zn25         O32   2.051       .  S
Zn25         O36   2.055       .  S
Zn26         O28   1.986       .  S
Zn26         O31   2.045       .  S
Zn26         O34   2.045       .  S
Zn26         O37   2.039       .  S
Zn27         O28   1.981   1_565  S
Zn27         O35   2.045       .  S
Zn27         O38   2.048       .  S
Zn27         O39   2.033       .  S
O29          C41   1.278   1_565  A
O30          C42   1.278       .  A
O31          C43   1.276       .  A
O32          C41   1.278       .  A
O33          C43   1.278   1_565  A
O34          C42   1.277       .  A
O35          C44   1.277   1_565  A
O36          C45   1.278   1_545  A
O37          C44   1.276       .  A
O38          C45   1.276       .  A
O39          C46   1.275       .  A
O40          C46   1.280       .  A
C41         C235   1.485       .  S
C42         C388   1.487       .  S
C43         C481   1.484       .  S
C44         C276   1.482   1_545  S
C45         C485   1.487       .  S
C46         C394   1.489       .  S
Zn47         O51   1.978   1_655  S
Zn47         O52   2.060       .  S
Zn47         O56   2.040       .  S
Zn47         O63   2.046       .  S
Zn48         O51   1.980       .  S
Zn48         O53   2.043       .  S
Zn48         O55   2.040       .  S
Zn48         O59   2.049       .  S
Zn49         O51   1.988       .  S
Zn49         O54   2.058       .  S
Zn49         O57   2.036       .  S
Zn49         O60   2.041       .  S
Zn50         O51   1.986   1_655  S
Zn50         O58   2.049       .  S
Zn50         O61   2.046       .  S
Zn50         O62   2.047       .  S
O52          C64   1.278   1_655  A
O53          C65   1.276       .  A
O54          C66   1.277       .  A
O55          C64   1.276       .  A
O56          C66   1.277   1_655  A
O57          C65   1.276       .  A
O58          C67   1.278   1_655  A
O59          C68   1.278       .  A
O60          C67   1.276       .  A
O61          C68   1.276   1_655  A
O62          C69   1.277       .  A
O63          C69   1.278       .  A
C64         C493   1.487       .  S
C65         C421   1.481       .  S
C66         C107   1.486       .  S
C67         C505   1.483       .  S
C68         C119   1.485       .  S
C69         C359   1.483       .  S
Zn70         O74   1.982   1_545  S
Zn70         O75   2.041       .  S
Zn70         O79   2.031       .  S
Zn70         O86   2.040       .  S
Zn71         O74   1.978   1_455  S
Zn71         O76   2.070       .  S
Zn71         O78   2.076       .  S
Zn71         O82   2.064       .  S
Zn72         O74   1.985   1_556  S
Zn72         O77   2.015       .  S
Zn72         O80   2.035       .  S
Zn72         O83   2.027       .  S
Zn73         O74   1.986   1_446  S
Zn73         O81   2.051       .  S
Zn73         O84   2.043       .  S
Zn73         O85   2.060       .  S
O75          C87   1.276   1_545  A
O76          C88   1.281   1_454  A
O77          C89   1.273       .  A
O78          C87   1.281   1_455  A
O79          C89   1.276   1_544  A
O80          C88   1.273       .  A
O81          C90   1.277   1_445  A
O82          C91   1.281   1_554  A
O83          C90   1.274       .  A
O84          C91   1.277   1_545  A
O85          C92   1.278   1_456  A
O86          C92   1.275       .  A
C87         C497   1.491       .  S
C88         C148   1.488       .  S
C89         C249   1.472       .  S
C90         C557   1.481       .  S
C91         C241   1.486       .  S
C92         C115   1.487       .  S
C93        C1549   1.486       .  S
C93          N94   1.352   1_554  A
C93          N98   1.362       .  A
N94          C95   1.351       .  A
C95        C1529   1.495       .  S
C95          N96   1.366       .  A
N96          C97   1.372       .  A
C97          N98   1.368   1_556  A
C99        C1496   1.504       .  S
C99         N100   1.369       .  A
C99         N104   1.352       .  A
N100        C101   1.373       .  A
C101        N102   1.367   1_554  A
N102        C103   1.360       .  A
C103       C1509   1.480       .  S
C103        N104   1.349   1_556  A
C105       C1449   1.498       .  S
C105        N106   1.369       .  A
C105        N110   1.352       .  A
N106        C107   1.372       .  A
C107        N108   1.365   1_455  A
N108        C109   1.358       .  A
C109       C1476   1.478       .  S
C109        N110   1.350   1_655  A
C111       C1416   1.485       .  S
C111        N112   1.350       .  A
C111        N116   1.363       .  A
N112        C113   1.350   1_654  A
C113       C1429   1.489       .  S
C113        N114   1.364       .  A
N114        C115   1.369   1_456  A
C115        N116   1.370       .  A
C117       C1376   1.486       .  S
C117        N118   1.364       .  A
C117        N122   1.352   1_655  A
N118        C119   1.369   1_655  A
C119        N120   1.367       .  A
N120        C121   1.362       .  A
C121       C1396   1.478       .  S
C121        N122   1.351       .  A
Zn123       O127   1.940       .  S
Zn123       O128   1.975       .  S
Zn123       O132   1.963       .  S
Zn123       O139   1.993       .  S
Zn124       O127   1.951       .  S
Zn124       O129   1.971       .  S
Zn124       O131   2.028       .  S
Zn124       O135   2.026       .  S
Zn125       O127   1.983       .  S
Zn125       O130   2.094       .  S
Zn125       O133   2.084       .  S
Zn125       O136   2.075       .  S
Zn126       O127   1.943       .  S
Zn126       O134   1.974       .  S
Zn126       O137   2.008       .  S
Zn126       O138   1.997       .  S
O128        C140   1.266       .  A
O129        C141   1.270       .  A
O130        C142   1.282       .  A
O131        C140   1.273       .  A
O132        C142   1.269       .  A
O133        C141   1.283       .  A
O134        C143   1.271       .  A
O135        C144   1.272       .  A
O136        C143   1.281       .  A
O137        C144   1.270       .  A
O138        C145   1.269       .  A
O139        C145   1.268       .  A
C140        C599   1.456       .  S
C141       C1389   1.475       .  S
C142       C1436   1.482       .  S
C143       C1516   1.469       .  S
C144        C452   1.463       .  S
C145        C300   1.461       .  S
C146       C1329   1.478       .  S
C146        N147   1.359       .  A
C146        N151   1.345   1_455  A
N147        C148   1.366   1_454  A
C148        N149   1.375       .  A
N149        C150   1.369       .  A
C150       C1349   1.492       .  S
C150        N151   1.348   1_556  A
Zn152       O156   1.938       .  S
Zn152       O157   1.995       .  S
Zn152       O161   1.982       .  S
Zn152       O168   2.001       .  S
Zn153       O156   1.945       .  S
Zn153       O158   1.961       .  S
Zn153       O160   2.022       .  S
Zn153       O164   2.022       .  S
Zn154       O156   1.980       .  S
Zn154       O159   2.092       .  S
Zn154       O162   2.103       .  S
Zn154       O165   2.095       .  S
Zn155       O156   1.950       .  S
Zn155       O163   1.963       .  S
Zn155       O166   1.998       .  S
Zn155       O167   2.017       .  S
O157        C169   1.268       .  A
O158        C170   1.269       .  A
O159        C171   1.284       .  A
O160        C169   1.272       .  A
O161        C171   1.271       .  A
O162        C170   1.284       .  A
O163        C172   1.268       .  A
O164        C173   1.271       .  A
O165        C172   1.284       .  A
O166        C173   1.270       .  A
O167        C174   1.269       .  A
O168        C174   1.269       .  A
C169        C475   1.457       .  S
C170       C1536   1.488       .  S
C171       C1369   1.475       .  S
C172       C1356   1.473       .  S
C173        C271   1.459       .  S
C174        C576   1.461       .  S
Zn175       O179   1.945       .  S
Zn175       O180   2.058       .  S
Zn175       O184   2.033       .  S
Zn175       O191   2.062       .  S
Zn176       O179   1.940       .  S
Zn176       O181   2.052       .  S
Zn176       O183   2.023       .  S
Zn176       O187   2.045       .  S
Zn177       O179   1.908       .  S
Zn177       O182   2.010       .  S
Zn177       O185   2.008       .  S
Zn177       O188   2.039       .  S
Zn178       O179   1.873       .  S
Zn178       O186   1.993       .  S
Zn178       O189   1.934       .  S
Zn178       O190   1.963       .  S
O180        C192   1.284       .  A
O181        C193   1.281       .  A
O182        C194   1.278       .  A
O183        C192   1.280       .  A
O184        C194   1.281       .  A
O185        C193   1.275       .  A
O186        C195   1.267       .  A
O187        C196   1.272       .  A
O188        C195   1.272       .  A
O189        C196   1.265       .  A
O190        C197   1.263       .  A
O191        C197   1.271       .  A
C192       C1556   1.497       .  S
C193       C1409   1.496       .  S
C194       C1469   1.491       .  S
C195        C548   1.461       .  S
C196        C344   1.451       .  S
C197        C381   1.457       .  S
Zn198       O202   1.941       .  S
Zn198       O203   1.986       .  S
Zn198       O207   1.953       .  S
Zn198       O214   2.004       .  S
Zn199       O202   1.956       .  S
Zn199       O204   1.968       .  S
Zn199       O206   2.018       .  S
Zn199       O210   2.001       .  S
Zn200       O202   1.980       .  S
Zn200       O205   2.079       .  S
Zn200       O208   2.084       .  S
Zn200       O211   2.096       .  S
Zn201       O202   1.944       .  S
Zn201       O209   1.973       .  S
Zn201       O212   2.001       .  S
Zn201       O213   1.997       .  S
O203        C215   1.266       .  A
O204        C216   1.268       .  A
O205        C217   1.283       .  A
O206        C215   1.269       .  A
O207        C217   1.270       .  A
O208        C216   1.282       .  A
O209        C218   1.269       .  A
O210        C219   1.271       .  A
O211        C218   1.284       .  A
O212        C219   1.271       .  A
O213        C220   1.268       .  A
O214        C220   1.269       .  A
C215        C526   1.456       .  S
C216       C1456   1.472       .  S
C217       C1336   1.475       .  S
C218       C1489   1.480       .  S
C219        C416   1.461       .  S
C220        C320   1.455       .  S
C221       C1296   1.500       .  S
C221        N222   1.352       .  A
C221        N226   1.360       .  A
N222        C223   1.355   1_554  A
C223       C1309   1.505       .  S
C223        N224   1.371       .  A
N224        C225   1.373       .  A
C225        N226   1.366   1_556  A
C227       C1269   1.476       .  S
C227        N228   1.358       .  A
C227        N232   1.351       .  A
N228        C229   1.363       .  A
C229        N230   1.371   1_554  A
N230        C231   1.367       .  A
C231       C1249   1.501       .  S
C231        N232   1.353   1_556  A
C233       C1216   1.494       .  S
C233        N234   1.364       .  A
C233        N238   1.354       .  A
N234        C235   1.367       .  A
C235        N236   1.366   1_545  A
N236        C237   1.363       .  A
C237       C1236   1.493       .  S
C237        N238   1.354   1_565  A
C239       C1176   1.483       .  S
C239        N240   1.360       .  A
C239        N244   1.350   1_554  A
N240        C241   1.365   1_554  A
C241        N242   1.372   1_565  A
N242        C243   1.367       .  A
C243       C1189   1.496       .  S
C243        N244   1.352   1_545  A
C245       C1129   1.483       .  S
C245        N246   1.351   1_544  A
C245        N250   1.359       .  A
N246        C247   1.352       .  A
C247       C1149   1.490       .  S
C247        N248   1.360       .  A
N248        C249   1.364       .  A
C249        N250   1.363   1_566  A
Zn251       O255   1.939       .  S
Zn251       O256   2.046       .  S
Zn251       O260   2.071       .  S
Zn251       O267   2.027       .  S
Zn252       O255   1.927       .  S
Zn252       O257   2.051       .  S
Zn252       O259   2.031       .  S
Zn252       O263   2.058       .  S
Zn253       O255   1.861       .  S
Zn253       O258   1.955       .  S
Zn253       O261   1.967       .  S
Zn253       O264   1.977       .  S
Zn254       O255   1.926       .  S
Zn254       O262   2.056       .  S
Zn254       O265   2.023       .  S
Zn254       O266   2.035       .  S
O256        C268   1.283       .  A
O257        C269   1.274       .  A
O258        C270   1.264       .  A
O259        C268   1.281       .  A
O260        C270   1.273       .  A
O261        C269   1.269       .  A
O262        C271   1.271       .  A
O263        C272   1.282       .  A
O264        C271   1.263       .  A
O265        C272   1.278       .  A
O266        C273   1.281       .  A
O267        C273   1.281       .  A
C268       C1109   1.496       .  S
C269        C472   1.462       .  S
C270        C577   1.461       .  S
C272       C1256   1.497       .  S
C273       C1156   1.491       .  S
C274       C1116   1.495       .  S
C274        N275   1.364       .  A
C274        N279   1.351       .  A
N275        C276   1.368       .  A
C276        N277   1.368   1_565  A
N277        C278   1.362       .  A
C278       C1096   1.489       .  S
C278        N279   1.350   1_545  A
Zn280       O284   1.932       .  S
Zn280       O285   1.951       .  S
Zn280       O289   1.966       .  S
Zn280       O296   1.990       .  S
Zn281       O284   1.981       .  S
Zn281       O286   2.095       .  S
Zn281       O288   2.106       .  S
Zn281       O292   2.098       .  S
Zn282       O284   1.961       .  S
Zn282       O287   2.037       .  S
Zn282       O290   1.970       .  S
Zn282       O293   2.003       .  S
Zn283       O284   1.949       .  S
Zn283       O291   2.002       .  S
Zn283       O294   1.962       .  S
Zn283       O295   2.006       .  S
O285        C297   1.268       .  A
O286        C298   1.283       .  A
O287        C299   1.272       .  A
O288        C297   1.285       .  A
O289        C299   1.265       .  A
O290        C298   1.270       .  A
O291        C300   1.270       .  A
O292        C301   1.284       .  A
O293        C300   1.270       .  A
O294        C301   1.267       .  A
O295        C302   1.269       .  A
O296        C302   1.267       .  A
C297       C1089   1.481       .  S
C298       C1316   1.478       .  S
C299        C453   1.455       .  S
C301       C1196   1.474       .  S
C302        C604   1.452       .  S
Zn303       O307   1.925       .  S
Zn303       O308   2.055       .  S
Zn303       O312   2.015       .  S
Zn303       O319   2.019       .  S
Zn304       O307   1.848       .  S
Zn304       O309   1.983       .  S
Zn304       O311   1.972       .  S
Zn304       O315   1.960       .  S
Zn305       O307   1.917       .  S
Zn305       O310   2.031       .  S
Zn305       O313   2.055       .  S
Zn305       O316   2.026       .  S
Zn306       O307   1.921       .  S
Zn306       O314   2.049       .  S
Zn306       O317   2.058       .  S
Zn306       O318   2.039       .  S
O308        C320   1.272       .  A
O309        C321   1.265       .  A
O310        C322   1.281       .  A
O311        C320   1.264       .  A
O312        C322   1.278       .  A
O313        C321   1.273       .  A
O314        C323   1.281       .  A
O315        C324   1.267       .  A
O316        C323   1.279       .  A
O317        C324   1.276       .  A
O318        C325   1.282       .  A
O319        C325   1.280       .  A
C321        C414   1.457       .  S
C322       C1276   1.487       .  S
C323       C1229   1.498       .  S
C324        C524   1.462       .  S
C325       C1169   1.492       .  S
Zn326       O330   1.927       .  S
Zn326       O331   2.063       .  S
Zn326       O335   2.016       .  S
Zn326       O342   2.028       .  S
Zn327       O330   1.845       .  S
Zn327       O332   1.957       .  S
Zn327       O334   1.962       .  S
Zn327       O338   1.973       .  S
Zn328       O330   1.934       .  S
Zn328       O333   2.025       .  S
Zn328       O336   2.041       .  S
Zn328       O339   2.017       .  S
Zn329       O330   1.919       .  S
Zn329       O337   2.040       .  S
Zn329       O340   2.058       .  S
Zn329       O341   2.030       .  S
O331        C343   1.272       .  A
O332        C344   1.263       .  A
O333        C345   1.279       .  A
O334        C343   1.264       .  A
O335        C345   1.278       .  A
O336        C344   1.270       .  A
O337        C346   1.281       .  A
O338        C347   1.269       .  A
O339        C346   1.278       .  A
O340        C347   1.274       .  A
O341        C348   1.281       .  A
O342        C348   1.280       .  A
C343        C550   1.455       .  S
C345       C1136   1.476       .  S
C346       C1289   1.493       .  S
C347        C380   1.467       .  S
C348       C1209   1.490       .  S
C349       C1056   1.495       .  S
C349        N350   1.352       .  A
C349        N354   1.367       .  A
N350        C351   1.350       .  A
C351       C1076   1.479       .  S
C351        N352   1.361       .  A
N352        C353   1.367       .  A
C353        N354   1.370       .  A
C355       C1016   1.491       .  S
C355        N356   1.353       .  A
C355        N360   1.365       .  A
N356        C357   1.351       .  A
C357       C1036   1.484       .  S
C357        N358   1.361       .  A
N358        C359   1.365       .  A
C359        N360   1.369       .  A
Zn361       O365   1.927       .  S
Zn361       O366   2.054       .  S
Zn361       O370   2.066       .  S
Zn361       O377   2.039       .  S
Zn362       O365   1.933       .  S
Zn362       O367   2.054       .  S
Zn362       O369   2.027       .  S
Zn362       O373   2.016       .  S
Zn363       O365   1.865       .  S
Zn363       O368   1.964       .  S
Zn363       O371   1.965       .  S
Zn363       O374   1.968       .  S
Zn364       O365   1.948       .  S
Zn364       O372   2.061       .  S
Zn364       O375   2.045       .  S
Zn364       O376   2.030       .  S
O366        C378   1.282       .  A
O367        C379   1.273       .  A
O368        C380   1.267       .  A
O369        C378   1.279       .  A
O370        C380   1.277       .  A
O371        C379   1.266       .  A
O372        C381   1.272       .  A
O373        C382   1.278       .  A
O374        C381   1.265       .  A
O375        C382   1.282       .  A
O376        C383   1.279       .  A
O377        C383   1.281       .  A
C378        C989   1.498       .  S
C379        C551   1.459       .  S
C382       C1029   1.492       .  S
C383       C1069   1.486       .  S
C384        C996   1.494       .  S
C384        N385   1.355       .  A
C384        N389   1.365       .  A
N385        C386   1.354       .  A
C386        C969   1.496       .  S
C386        N387   1.363       .  A
N387        C388   1.367       .  A
C388        N389   1.367       .  A
C390        C929   1.493       .  S
C390        N391   1.353       .  A
C390        N395   1.361       .  A
N391        C392   1.355       .  A
C392        C949   1.498       .  S
C392        N393   1.368       .  A
N393        C394   1.369       .  A
C394        N395   1.367       .  A
Zn396       O400   1.986       .  S
Zn396       O401   2.107       .  S
Zn396       O405   2.093       .  S
Zn396       O412   2.089       .  S
Zn397       O400   1.947       .  S
Zn397       O402   2.014       .  S
Zn397       O404   1.962       .  S
Zn397       O408   2.020       .  S
Zn398       O400   1.945       .  S
Zn398       O403   1.963       .  S
Zn398       O406   2.001       .  S
Zn398       O409   1.994       .  S
Zn399       O400   1.947       .  S
Zn399       O407   1.997       .  S
Zn399       O410   1.984       .  S
Zn399       O411   1.971       .  S
O401        C413   1.285       .  A
O402        C414   1.271       .  A
O403        C415   1.270       .  A
O404        C413   1.269       .  A
O405        C415   1.283       .  A
O406        C414   1.270       .  A
O407        C416   1.268       .  A
O408        C417   1.271       .  A
O409        C416   1.268       .  A
O410        C417   1.268       .  A
O411        C418   1.269       .  A
O412        C418   1.283       .  A
C413        C956   1.491       .  S
C415       C1049   1.479       .  S
C417        C529   1.456       .  S
C418        C916   1.473       .  S
C419        C909   1.484       .  S
C419        N420   1.361       .  A
C419        N424   1.351       .  A
N420        C421   1.366       .  A
C421        N422   1.367       .  A
N422        C423   1.363       .  A
C423        C889   1.492       .  S
C423        N424   1.352       .  A
C425        C849   1.490       .  S
C425        N426   1.365       .  A
C425        N430   1.350       .  A
N426        C427   1.371       .  A
C427        N428   1.365       .  A
N428        C429   1.360       .  A
C429        C869   1.478       .  S
C429        N430   1.350       .  A
Zn431       O435   1.926       .  S
Zn431       O436   2.003       .  S
Zn431       O440   2.052       .  S
Zn431       O447   2.065       .  S
Zn432       O435   1.925       .  S
Zn432       O437   2.028       .  S
Zn432       O439   2.042       .  S
Zn432       O443   2.075       .  S
Zn433       O435   1.916       .  S
Zn433       O438   2.026       .  S
Zn433       O441   2.025       .  S
Zn433       O444   2.044       .  S
Zn434       O435   1.847       .  S
Zn434       O442   1.963       .  S
Zn434       O445   1.980       .  S
Zn434       O446   1.951       .  S
O436        C448   1.278       .  A
O437        C449   1.280       .  A
O438        C450   1.279       .  A
O439        C448   1.282       .  A
O440        C450   1.282       .  A
O441        C449   1.279       .  A
O442        C451   1.268       .  A
O443        C452   1.274       .  A
O444        C451   1.274       .  A
O445        C452   1.264       .  A
O446        C453   1.264       .  A
O447        C453   1.272       .  A
C448        C876   1.490       .  S
C449        C896   1.483       .  S
C450        C976   1.497       .  S
C451        C601   1.460       .  S
Zn454       O458   1.927       .  S
Zn454       O459   2.070       .  S
Zn454       O463   2.037       .  S
Zn454       O470   2.024       .  S
Zn455       O458   1.842       .  S
Zn455       O460   1.962       .  S
Zn455       O462   1.953       .  S
Zn455       O466   1.970       .  S
Zn456       O458   1.918       .  S
Zn456       O461   2.041       .  S
Zn456       O464   2.058       .  S
Zn456       O467   2.042       .  S
Zn457       O458   1.927       .  S
Zn457       O465   2.032       .  S
Zn457       O468   2.069       .  S
Zn457       O469   2.049       .  S
O459        C471   1.273       .  A
O460        C472   1.267       .  A
O461        C473   1.282       .  A
O462        C471   1.266       .  A
O463        C473   1.282       .  A
O464        C472   1.275       .  A
O465        C474   1.281       .  A
O466        C475   1.263       .  A
O467        C474   1.282       .  A
O468        C475   1.273       .  A
O469        C476   1.283       .  A
O470        C476   1.281       .  A
C471        C580   1.466       .  S
C473        C936   1.496       .  S
C474        C856   1.497       .  S
C476       C1009   1.495       .  S
C477        C809   1.488       .  S
C477        N478   1.354       .  A
C477        N482   1.366       .  A
N478        C479   1.353   1_545  A
C479        C829   1.481       .  S
C479        N480   1.360       .  A
N480        C481   1.363   1_565  A
C481        N482   1.369       .  A
C483        C769   1.494       .  S
C483        N484   1.367       .  A
C483        N488   1.352       .  A
N484        C485   1.370       .  A
C485        N486   1.366   1_565  A
N486        C487   1.360       .  A
C487        C796   1.478       .  S
C487        N488   1.349   1_545  A
C489        C736   1.481       .  S
C489        N490   1.351       .  A
C489        N494   1.361       .  A
N490        C491   1.353   1_455  A
C491        C749   1.481       .  S
C491        N492   1.365       .  A
N492        C493   1.368   1_655  A
C493        N494   1.367       .  A
C495        C709   1.487       .  S
C495        N496   1.364       .  A
C495        N500   1.353   1_455  A
N496        C497   1.367   1_455  A
C497        N498   1.370   1_565  A
N498        C499   1.366       .  A
C499        C689   1.492       .  S
C499        N500   1.354   1_545  A
C501        C669   1.494       .  S
C501        N502   1.355   1_655  A
C501        N506   1.364       .  A
N502        C503   1.353       .  A
C503        C656   1.489       .  S
C503        N504   1.362       .  A
N504        C505   1.366       .  A
C505        N506   1.365   1_455  A
Zn507       O511   1.840       .  S
Zn507       O512   1.962       .  S
Zn507       O516   1.961       .  S
Zn507       O523   1.975       .  S
Zn508       O511   1.920       .  S
Zn508       O513   2.030       .  S
Zn508       O515   2.055       .  S
Zn508       O519   2.033       .  S
Zn509       O511   1.921       .  S
Zn509       O514   2.064       .  S
Zn509       O517   2.052       .  S
Zn509       O520   2.035       .  S
Zn510       O511   1.917       .  S
Zn510       O518   2.043       .  S
Zn510       O521   2.018       .  S
Zn510       O522   2.055       .  S
O512        C524   1.267       .  A
O513        C525   1.281       .  A
O514        C526   1.273       .  A
O515        C524   1.274       .  A
O516        C526   1.264       .  A
O517        C525   1.284       .  A
O518        C527   1.281       .  A
O519        C528   1.280       .  A
O520        C527   1.281       .  A
O521        C528   1.279       .  A
O522        C529   1.272       .  A
O523        C529   1.265       .  A
C525        C716   1.496       .  S
C527        C649   1.498       .  S
C528        C836   1.489       .  S
Zn530       O534   1.969       .  S
Zn530       O535   2.099       .  S
Zn530       O539   2.113       .  S
Zn530       O546   2.098       .  S
Zn531       O534   1.937       .  S
Zn531       O536   2.006       .  S
Zn531       O538   1.960       .  S
Zn531       O542   2.016       .  S
Zn532       O534   1.925       .  S
Zn532       O537   1.970       .  S
Zn532       O540   2.018       .  S
Zn532       O543   2.014       .  S
Zn533       O534   1.922       .  S
Zn533       O541   2.002       .  S
Zn533       O544   2.001       .  S
Zn533       O545   1.972       .  S
O535        C547   1.285       .  A
O536        C548   1.270       .  A
O537        C549   1.271       .  A
O538        C547   1.270       .  A
O539        C549   1.287       .  A
O540        C548   1.271       .  A
O541        C550   1.269       .  A
O542        C551   1.268       .  A
O543        C550   1.272       .  A
O544        C551   1.269       .  A
O545        C552   1.272       .  A
O546        C552   1.286       .  A
C547        C756   1.482       .  S
C549        C696   1.493       .  S
C552        C789   1.482       .  S
C553        C616   1.481       .  S
C553        N554   1.353   1_455  A
C553        N558   1.361       .  A
N554        C555   1.353   1_545  A
C555        C636   1.484       .  S
C555        N556   1.363       .  A
N556        C557   1.367       .  A
C557        N558   1.365   1_665  A
Zn559       O563   1.930       .  S
Zn559       O564   2.059       .  S
Zn559       O568   2.023       .  S
Zn559       O575   2.029       .  S
Zn560       O563   1.846       .  S
Zn560       O565   1.959       .  S
Zn560       O567   1.978       .  S
Zn560       O571   1.953       .  S
Zn561       O563   1.938       .  S
Zn561       O566   2.048       .  S
Zn561       O569   2.075       .  S
Zn561       O572   2.042       .  S
Zn562       O563   1.933       .  S
Zn562       O570   2.030       .  S
Zn562       O573   2.074       .  S
Zn562       O574   2.025       .  S
O564        C576   1.274       .  A
O565        C577   1.267       .  A
O566        C578   1.282       .  A
O567        C576   1.266       .  A
O568        C578   1.279       .  A
O569        C577   1.275       .  A
O570        C579   1.280       .  A
O571        C580   1.264       .  A
O572        C579   1.282       .  A
O573        C580   1.275       .  A
O574        C581   1.279       .  A
O575        C581   1.279       .  A
C578        C629   1.491       .  S
C579        C776   1.488       .  S
C581        C676   1.487       .  S
Zn582       O586   1.848       .  S
Zn582       O587   1.974       .  S
Zn582       O591   1.960       .  S
Zn582       O598   1.965       .  S
Zn583       O586   1.917       .  S
Zn583       O588   2.024       .  S
Zn583       O590   2.050       .  S
Zn583       O594   2.045       .  S
Zn584       O586   1.915       .  S
Zn584       O589   2.051       .  S
Zn584       O592   2.034       .  S
Zn584       O595   2.037       .  S
Zn585       O586   1.920       .  S
Zn585       O593   2.034       .  S
Zn585       O596   2.015       .  S
Zn585       O597   2.054       .  S
O587        C599   1.266       .  A
O588        C600   1.279       .  A
O589        C601   1.274       .  A
O590        C599   1.271       .  A
O591        C601   1.266       .  A
O592        C600   1.281       .  A
O593        C602   1.281       .  A
O594        C603   1.282       .  A
O595        C602   1.281       .  A
O596        C603   1.278       .  A
O597        C604   1.271       .  A
O598        C604   1.263       .  A
C600        C729   1.488       .  S
C602        C816   1.496       .  S
C603        C609   1.493       .  S
C605        C606   1.404       .  A
C605        C610   1.401       .  A
C605        F623   1.358       .  S
C606        C611   1.486       .  S
C606        C607   1.405       .  A
C607        C608   1.399       .  A
C607        F612   1.358       .  S
C608        C609   1.412       .  A
C608        F624   1.357       .  S
C609        C610   1.415       .  A
C610        F613   1.358       .  S
C611        C614   1.409       .  A
C611        C618   1.404       .  A
C614        C615   1.404       .  A
C614        F619   1.358       .  S
C615        C616   1.407       .  A
C615        F621   1.358       .  S
C616        C617   1.408       .  A
C617        C618   1.395       .  A
C617        F620   1.358   1_455  S
C618        F622   1.358       .  S
C625        C626   1.404       .  A
C625        C630   1.401       .  A
C625        F643   1.358       .  S
C626        C631   1.485       .  S
C626        C627   1.405       .  A
C627        C628   1.401       .  A
C627        F632   1.358       .  S
C628        C629   1.412       .  A
C628        F644   1.358       .  S
C629        C630   1.412       .  A
C630        F633   1.358       .  S
C631        C634   1.402       .  A
C631        C638   1.408       .  A
C634        C635   1.398       .  A
C634        F639   1.358       .  S
C635        C636   1.410       .  A
C635        F641   1.358   1_565  S
C636        C637   1.407       .  A
C637        C638   1.405       .  A
C637        F640   1.357       .  S
C638        F642   1.358       .  S
C645        C646   1.403       .  A
C645        C650   1.400       .  A
C645        F663   1.358       .  S
C646        C651   1.487       .  S
C646        C647   1.404       .  A
C647        C648   1.404       .  A
C647        F652   1.358       .  S
C648        C649   1.415       .  A
C648        F664   1.358       .  S
C649        C650   1.414       .  A
C650        F653   1.357       .  S
C651        C654   1.408       .  A
C651        C658   1.403       .  A
C654        C655   1.404       .  A
C654        F659   1.357       .  S
C655        C656   1.408       .  A
C655        F661   1.357       .  S
C656        C657   1.413       .  A
C657        C658   1.400       .  A
C657        F660   1.358       .  S
C658        F662   1.358       .  S
C665        C666   1.399       .  A
C665        C670   1.395       .  A
C665        F683   1.358       .  S
C666        C671   1.481       .  S
C666        C667   1.405       .  A
C667        C668   1.405       .  A
C667        F672   1.358       .  S
C668        C669   1.412       .  A
C668        F684   1.357       .  S
C669        C670   1.416       .  A
C670        F673   1.358       .  S
C671        C674   1.404       .  A
C671        C678   1.403       .  A
C674        C675   1.399       .  A
C674        F679   1.358       .  S
C675        C676   1.410       .  A
C675        F681   1.358       .  S
C676        C677   1.413       .  A
C677        C678   1.401       .  A
C677        F680   1.358       .  S
C678        F682   1.358       .  S
C685        C686   1.409       .  A
C685        C690   1.409       .  A
C685        F703   1.358       .  S
C686        C691   1.488       .  S
C686        C687   1.401       .  A
C687        C688   1.399       .  A
C687        F692   1.358       .  S
C688        C689   1.413       .  A
C688        F704   1.358   1_655  S
C689        C690   1.409       .  A
C690        F693   1.357       .  S
C691        C694   1.410       .  A
C691        C698   1.400       .  A
C694        C695   1.410       .  A
C694        F699   1.357       .  S
C695        C696   1.408       .  A
C695        F701   1.357       .  S
C696        C697   1.414       .  A
C697        C698   1.398       .  A
C697        F700   1.359       .  S
C698        F702   1.358       .  S
C705        C706   1.408       .  A
C705        C710   1.405       .  A
C705        F723   1.357       .  S
C706        C711   1.488       .  S
C706        C707   1.404       .  A
C707        C708   1.399       .  A
C707        F712   1.358       .  S
C708        C709   1.411       .  A
C708        F724   1.358   1_455  S
C709        C710   1.407       .  A
C710        F713   1.357       .  S
C711        C714   1.405       .  A
C711        C718   1.405       .  A
C714        C715   1.402       .  A
C714        F719   1.358       .  S
C715        C716   1.414       .  A
C715        F721   1.358       .  S
C716        C717   1.413       .  A
C717        C718   1.402       .  A
C717        F720   1.358       .  S
C718        F722   1.358       .  S
C725        C726   1.403       .  A
C725        C730   1.399       .  A
C725        F743   1.358       .  S
C726        C731   1.482       .  S
C726        C727   1.404       .  A
C727        C728   1.402       .  A
C727        F732   1.358       .  S
C728        C729   1.411       .  A
C728        F744   1.358       .  S
C729        C730   1.412       .  A
C730        F733   1.358       .  S
C731        C734   1.403       .  A
C731        C738   1.407       .  A
C734        C735   1.397       .  A
C734        F739   1.358       .  S
C735        C736   1.409       .  A
C735        F741   1.358       .  S
C736        C737   1.406       .  A
C737        C738   1.404       .  A
C737        F740   1.357       .  S
C738        F742   1.357       .  S
C745        C746   1.400       .  A
C745        C750   1.398       .  A
C745        F763   1.358       .  S
C746        C751   1.480       .  S
C746        C747   1.407       .  A
C747        C748   1.406       .  A
C747        F752   1.358       .  S
C748        C749   1.406       .  A
C748        F764   1.358       .  S
C749        C750   1.410       .  A
C750        F753   1.358   1_655  S
C751        C754   1.408       .  A
C751        C758   1.399       .  A
C754        C755   1.407       .  A
C754        F759   1.357       .  S
C755        C756   1.407       .  A
C755        F761   1.357       .  S
C756        C757   1.411       .  A
C757        C758   1.396       .  A
C757        F760   1.359       .  S
C758        F762   1.358       .  S
C765        C766   1.406       .  A
C765        C770   1.406       .  A
C765        F783   1.357       .  S
C766        C771   1.481       .  S
C766        C767   1.399       .  A
C767        C768   1.398       .  A
C767        F772   1.358       .  S
C768        C769   1.417       .  A
C768        F784   1.358       .  S
C769        C770   1.409       .  A
C770        F773   1.357       .  S
C771        C774   1.402       .  A
C771        C778   1.404       .  A
C774        C775   1.401       .  A
C774        F779   1.358       .  S
C775        C776   1.413       .  A
C775        F781   1.358       .  S
C776        C777   1.410       .  A
C777        C778   1.401       .  A
C777        F780   1.358       .  S
C778        F782   1.358       .  S
C785        C786   1.399       .  A
C785        C790   1.397       .  A
C785        F803   1.358       .  S
C786        C791   1.479       .  S
C786        C787   1.407       .  A
C787        C788   1.406       .  A
C787        F792   1.358       .  S
C788        C789   1.406       .  A
C788        F804   1.357       .  S
C789        C790   1.411       .  A
C790        F793   1.358       .  S
C791        C794   1.407       .  A
C791        C798   1.401       .  A
C794        C795   1.402       .  A
C794        F799   1.357       .  S
C795        C796   1.404       .  A
C795        F801   1.358       .  S
C796        C797   1.410       .  A
C797        C798   1.399       .  A
C797        F800   1.358       .  S
C798        F802   1.358       .  S
C805        C806   1.402       .  A
C805        C810   1.399       .  A
C805        F823   1.358       .  S
C806        C811   1.485       .  S
C806        C807   1.408       .  A
C807        C808   1.406       .  A
C807        F812   1.357       .  S
C808        C809   1.407       .  A
C808        F824   1.357       .  S
C809        C810   1.412       .  A
C810        F813   1.358   1_545  S
C811        C814   1.403       .  A
C811        C818   1.404       .  A
C814        C815   1.401       .  A
C814        F819   1.358       .  S
C815        C816   1.414       .  A
C815        F821   1.358       .  S
C816        C817   1.413       .  A
C817        C818   1.402       .  A
C817        F820   1.358       .  S
C818        F822   1.358       .  S
C825        C826   1.406       .  A
C825        C830   1.401       .  A
C825        F843   1.358       .  S
C826        C831   1.477       .  S
C826        C827   1.401       .  A
C827        C828   1.397       .  A
C827        F832   1.358       .  S
C828        C829   1.411       .  A
C828        F844   1.358   1_565  S
C829        C830   1.407       .  A
C830        F833   1.358       .  S
C831        C834   1.401       .  A
C831        C838   1.402       .  A
C834        C835   1.397       .  A
C834        F839   1.358       .  S
C835        C836   1.412       .  A
C835        F841   1.358       .  S
C836        C837   1.414       .  A
C837        C838   1.401       .  A
C837        F840   1.358       .  S
C838        F842   1.358       .  S
C845        C846   1.410       .  A
C845        C850   1.406       .  A
C845        F863   1.357       .  S
C846        C851   1.491       .  S
C846        C847   1.403       .  A
C847        C848   1.398       .  A
C847        F852   1.358       .  S
C848        C849   1.414       .  A
C848        F864   1.359       .  S
C849        C850   1.407       .  A
C850        F853   1.357       .  S
C851        C854   1.405       .  A
C851        C858   1.406       .  A
C854        C855   1.401       .  A
C854        F859   1.358       .  S
C855        C856   1.414       .  A
C855        F861   1.358       .  S
C856        C857   1.413       .  A
C857        C858   1.402       .  A
C857        F860   1.358       .  S
C858        F862   1.358       .  S
C865        C866   1.408       .  A
C865        C870   1.404       .  A
C865        F883   1.358       .  S
C866        C871   1.478       .  S
C866        C867   1.401       .  A
C867        C868   1.391       .  A
C867        F872   1.358       .  S
C868        C869   1.410       .  A
C868        F884   1.359       .  S
C869        C870   1.407       .  A
C870        F873   1.357       .  S
C871        C874   1.403       .  A
C871        C878   1.402       .  A
C874        C875   1.401       .  A
C874        F879   1.358       .  S
C875        C876   1.413       .  A
C875        F881   1.358       .  S
C876        C877   1.414       .  A
C877        C878   1.394       .  A
C877        F880   1.358       .  S
C878        F882   1.358       .  S
C885        C886   1.406       .  A
C885        C890   1.405       .  A
C885        F903   1.358       .  S
C886        C891   1.478       .  S
C886        C887   1.398       .  A
C887        C888   1.394       .  A
C887        F892   1.358       .  S
C888        C889   1.416       .  A
C888        F904   1.358       .  S
C889        C890   1.411       .  A
C890        F893   1.357       .  S
C891        C894   1.402       .  A
C891        C898   1.405       .  A
C894        C895   1.400       .  A
C894        F899   1.358       .  S
C895        C896   1.412       .  A
C895        F901   1.358       .  S
C896        C897   1.408       .  A
C897        C898   1.399       .  A
C897        F900   1.358       .  S
C898        F902   1.358       .  S
C905        C906   1.409       .  A
C905        C910   1.405       .  A
C905        F923   1.358       .  S
C906        C911   1.486       .  S
C906        C907   1.402       .  A
C907        C908   1.397       .  A
C907        F912   1.358       .  S
C908        C909   1.411       .  A
C908        F924   1.358       .  S
C909        C910   1.407       .  A
C910        F913   1.358       .  S
C911        C914   1.407       .  A
C911        C918   1.406       .  A
C914        C915   1.402       .  A
C914        F919   1.358       .  S
C915        C916   1.405       .  A
C915        F921   1.358       .  S
C916        C917   1.405       .  A
C917        C918   1.402       .  A
C917        F920   1.358       .  S
C918        F922   1.358       .  S
C925        C926   1.401       .  A
C925        C930   1.395       .  A
C925        F943   1.358       .  S
C926        C931   1.486       .  S
C926        C927   1.408       .  A
C927        C928   1.408       .  A
C927        F932   1.358       .  S
C928        C929   1.411       .  A
C928        F944   1.357       .  S
C929        C930   1.412       .  A
C930        F933   1.356       .  S
C931        C934   1.404       .  A
C931        C938   1.404       .  A
C934        C935   1.401       .  A
C934        F939   1.358       .  S
C935        C936   1.414       .  A
C935        F941   1.358       .  S
C936        C937   1.414       .  A
C937        C938   1.403       .  A
C937        F940   1.358       .  S
C938        F942   1.358       .  S
C945        C946   1.400       .  A
C945        C950   1.398       .  A
C945        F963   1.358       .  S
C946        C951   1.492       .  S
C946        C947   1.411       .  A
C947        C948   1.407       .  A
C947        F952   1.358       .  S
C948        C949   1.409       .  A
C948        F964   1.357       .  S
C949        C950   1.416       .  A
C950        F953   1.356       .  S
C951        C954   1.412       .  A
C951        C958   1.401       .  A
C954        C955   1.410       .  A
C954        F959   1.358       .  S
C955        C956   1.407       .  A
C955        F961   1.357       .  S
C956        C957   1.413       .  A
C957        C958   1.396       .  A
C957        F960   1.359       .  S
C958        F962   1.358       .  S
C965        C966   1.399       .  A
C965        C970   1.398       .  A
C965        F983   1.358       .  S
C966        C971   1.482       .  S
C966        C967   1.405       .  A
C967        C968   1.406       .  A
C967        F972   1.357       .  S
C968        C969   1.412       .  A
C968        F984   1.357       .  S
C969        C970   1.416       .  A
C970        F973   1.358       .  S
C971        C974   1.400       .  A
C971        C978   1.404       .  A
C974        C975   1.400       .  A
C974        F979   1.358       .  S
C975        C976   1.415       .  A
C975        F981   1.358       .  S
C976        C977   1.413       .  A
C977        C978   1.404       .  A
C977        F980   1.358       .  S
C978        F982   1.358       .  S
C985        C986   1.403       .  A
C985        C990   1.403       .  A
C985       F1003   1.358       .  S
C986        C991   1.486       .  S
C986        C987   1.404       .  A
C987        C988   1.403       .  A
C987        F992   1.358       .  S
C988        C989   1.412       .  A
C988       F1004   1.357       .  S
C989        C990   1.416       .  A
C990        F993   1.358       .  S
C991        C994   1.401       .  A
C991        C998   1.407       .  A
C994        C995   1.399       .  A
C994        F999   1.358       .  S
C995        C996   1.415       .  A
C995       F1001   1.358       .  S
C996        C997   1.410       .  A
C997        C998   1.406       .  A
C997       F1000   1.357       .  S
C998       F1002   1.357       .  S
C1005      C1006   1.407       .  A
C1005      C1010   1.404       .  A
C1005      F1023   1.358       .  S
C1006      C1011   1.487       .  S
C1006      C1007   1.403       .  A
C1007      C1008   1.398       .  A
C1007      F1012   1.358       .  S
C1008      C1009   1.414       .  A
C1008      F1024   1.358       .  S
C1009      C1010   1.413       .  A
C1010      F1013   1.358       .  S
C1011      C1014   1.401       .  A
C1011      C1018   1.409       .  A
C1014      C1015   1.396       .  A
C1014      F1019   1.358       .  S
C1015      C1016   1.414       .  A
C1015      F1021   1.358       .  S
C1016      C1017   1.408       .  A
C1017      C1018   1.406       .  A
C1017      F1020   1.357       .  S
C1018      F1022   1.358       .  S
C1025      C1026   1.403       .  A
C1025      C1030   1.401       .  A
C1025      F1043   1.358       .  S
C1026      C1031   1.479       .  S
C1026      C1027   1.402       .  A
C1027      C1028   1.399       .  A
C1027      F1032   1.358       .  S
C1028      C1029   1.414       .  A
C1028      F1044   1.358       .  S
C1029      C1030   1.413       .  A
C1030      F1033   1.358       .  S
C1031      C1034   1.401       .  A
C1031      C1038   1.406       .  A
C1034      C1035   1.397       .  A
C1034      F1039   1.358       .  S
C1035      C1036   1.412       .  A
C1035      F1041   1.358       .  S
C1036      C1037   1.407       .  A
C1037      C1038   1.403       .  A
C1037      F1040   1.357       .  S
C1038      F1042   1.357       .  S
C1045      C1046   1.410       .  A
C1045      C1050   1.407       .  A
C1045      F1063   1.357       .  S
C1046      C1051   1.483       .  S
C1046      C1047   1.400       .  A
C1047      C1048   1.396       .  A
C1047      F1052   1.358       .  S
C1048      C1049   1.410       .  A
C1048      F1064   1.358       .  S
C1049      C1050   1.405       .  A
C1050      F1053   1.357       .  S
C1051      C1054   1.398       .  A
C1051      C1058   1.407       .  A
C1054      C1055   1.398       .  A
C1054      F1059   1.358       .  S
C1055      C1056   1.418       .  A
C1055      F1061   1.358       .  S
C1056      C1057   1.409       .  A
C1057      C1058   1.405       .  A
C1057      F1060   1.357       .  S
C1058      F1062   1.358       .  S
C1065      C1066   1.401       .  A
C1065      C1070   1.398       .  A
C1065      F1083   1.358       .  S
C1066      C1071   1.481       .  S
C1066      C1067   1.405       .  A
C1067      C1068   1.405       .  A
C1067      F1072   1.358       .  S
C1068      C1069   1.410       .  A
C1068      F1084   1.358       .  S
C1069      C1070   1.411       .  A
C1070      F1073   1.358       .  S
C1071      C1074   1.402       .  A
C1071      C1078   1.407       .  A
C1074      C1075   1.397       .  A
C1074      F1079   1.358       .  S
C1075      C1076   1.409       .  A
C1075      F1081   1.358       .  S
C1076      C1077   1.406       .  A
C1077      C1078   1.405       .  A
C1077      F1080   1.357       .  S
C1078      F1082   1.357       .  S
C1085      C1086   1.400       .  A
C1085      C1090   1.397       .  A
C1085      F1103   1.358       .  S
C1086      C1091   1.481       .  S
C1086      C1087   1.409       .  A
C1087      C1088   1.406       .  A
C1087      F1092   1.357       .  S
C1088      C1089   1.405       .  A
C1088      F1104   1.357       .  S
C1089      C1090   1.412       .  A
C1090      F1093   1.359       .  S
C1091      C1094   1.399       .  A
C1091      C1098   1.408       .  A
C1094      C1095   1.396       .  A
C1094      F1099   1.358       .  S
C1095      C1096   1.414       .  A
C1095      F1101   1.358       .  S
C1096      C1097   1.409       .  A
C1097      C1098   1.406       .  A
C1097      F1100   1.358       .  S
C1098      F1102   1.358       .  S
C1105      C1106   1.401       .  A
C1105      C1110   1.401       .  A
C1105      F1123   1.358       .  S
C1106      C1111   1.479       .  S
C1106      C1107   1.402       .  A
C1107      C1108   1.402       .  A
C1107      F1112   1.358       .  S
C1108      C1109   1.413       .  A
C1108      F1124   1.357       .  S
C1109      C1110   1.416       .  A
C1110      F1113   1.358       .  S
C1111      C1114   1.397       .  A
C1111      C1118   1.406       .  A
C1114      C1115   1.394       .  A
C1114      F1119   1.358       .  S
C1115      C1116   1.417       .  A
C1115      F1121   1.358       .  S
C1116      C1117   1.412       .  A
C1117      C1118   1.407       .  A
C1117      F1120   1.357       .  S
C1118      F1122   1.357       .  S
C1125      C1126   1.398       .  A
C1125      C1130   1.394       .  A
C1125      F1143   1.358       .  S
C1126      C1131   1.473       .  S
C1126      C1127   1.405       .  A
C1127      C1128   1.402       .  A
C1127      F1132   1.358       .  S
C1128      C1129   1.409       .  A
C1128      F1144   1.358       .  S
C1129      C1130   1.413       .  A
C1130      F1133   1.358   1_554  S
C1131      C1134   1.404       .  A
C1131      C1138   1.401       .  A
C1134      C1135   1.399       .  A
C1134      F1139   1.358       .  S
C1135      C1136   1.407       .  A
C1135      F1141   1.358       .  S
C1136      C1137   1.409       .  A
C1137      C1138   1.397       .  A
C1137      F1140   1.358       .  S
C1138      F1142   1.358       .  S
C1145      C1146   1.405       .  A
C1145      C1150   1.405       .  A
C1145      F1163   1.358       .  S
C1146      C1151   1.476       .  S
C1146      C1147   1.397       .  A
C1147      C1148   1.392       .  A
C1147      F1152   1.358       .  S
C1148      C1149   1.415       .  A
C1148      F1164   1.358       .  S
C1149      C1150   1.412       .  A
C1150      F1153   1.358       .  S
C1151      C1154   1.402       .  A
C1151      C1158   1.400       .  A
C1154      C1155   1.400       .  A
C1154      F1159   1.358       .  S
C1155      C1156   1.413       .  A
C1155      F1161   1.358       .  S
C1156      C1157   1.415       .  A
C1157      C1158   1.399       .  A
C1157      F1160   1.358       .  S
C1158      F1162   1.358       .  S
C1165      C1166   1.405       .  A
C1165      C1170   1.401       .  A
C1165      F1183   1.358       .  S
C1166      C1171   1.484       .  S
C1166      C1167   1.403       .  A
C1167      C1168   1.398       .  A
C1167      F1172   1.358       .  S
C1168      C1169   1.414       .  A
C1168      F1184   1.358       .  S
C1169      C1170   1.413       .  A
C1170      F1173   1.358       .  S
C1171      C1174   1.403       .  A
C1171      C1178   1.408       .  A
C1174      C1175   1.395       .  A
C1174      F1179   1.358       .  S
C1175      C1176   1.411       .  A
C1175      F1181   1.358   1_554  S
C1176      C1177   1.407       .  A
C1177      C1178   1.404       .  A
C1177      F1180   1.357       .  S
C1178      F1182   1.358       .  S
C1185      C1186   1.410       .  A
C1185      C1190   1.410       .  A
C1185      F1203   1.357       .  S
C1186      C1191   1.488       .  S
C1186      C1187   1.400       .  A
C1187      C1188   1.395       .  A
C1187      F1192   1.358       .  S
C1188      C1189   1.416       .  A
C1188      F1204   1.358       .  S
C1189      C1190   1.410       .  A
C1190      F1193   1.357       .  S
C1191      C1194   1.407       .  A
C1191      C1198   1.407       .  A
C1194      C1195   1.401       .  A
C1194      F1199   1.358       .  S
C1195      C1196   1.405       .  A
C1195      F1201   1.358       .  S
C1196      C1197   1.406       .  A
C1197      C1198   1.405       .  A
C1197      F1200   1.358       .  S
C1198      F1202   1.358       .  S
C1205      C1206   1.403       .  A
C1205      C1210   1.398       .  A
C1205      F1223   1.358       .  S
C1206      C1211   1.485       .  S
C1206      C1207   1.406       .  A
C1207      C1208   1.402       .  A
C1207      F1212   1.358       .  S
C1208      C1209   1.412       .  A
C1208      F1224   1.358       .  S
C1209      C1210   1.412       .  A
C1210      F1213   1.358       .  S
C1211      C1214   1.401       .  A
C1211      C1218   1.408       .  A
C1214      C1215   1.396       .  A
C1214      F1219   1.358       .  S
C1215      C1216   1.415       .  A
C1215      F1221   1.358       .  S
C1216      C1217   1.411       .  A
C1217      C1218   1.405       .  A
C1217      F1220   1.357       .  S
C1218      F1222   1.358       .  S
C1225      C1226   1.406       .  A
C1225      C1230   1.404       .  A
C1225      F1243   1.358       .  S
C1226      C1231   1.489       .  S
C1226      C1227   1.404       .  A
C1227      C1228   1.401       .  A
C1227      F1232   1.358       .  S
C1228      C1229   1.415       .  A
C1228      F1244   1.358       .  S
C1229      C1230   1.414       .  A
C1230      F1233   1.358       .  S
C1231      C1234   1.408       .  A
C1231      C1238   1.403       .  A
C1234      C1235   1.404       .  A
C1234      F1239   1.358       .  S
C1235      C1236   1.409       .  A
C1235      F1241   1.357       .  S
C1236      C1237   1.414       .  A
C1237      C1238   1.400       .  A
C1237      F1240   1.358   1_565  S
C1238      F1242   1.358       .  S
C1245      C1246   1.408       .  A
C1245      C1250   1.408       .  A
C1245      F1263   1.357       .  S
C1246      C1251   1.490       .  S
C1246      C1247   1.400       .  A
C1247      C1248   1.398       .  A
C1247      F1252   1.358       .  S
C1248      C1249   1.419       .  A
C1248      F1264   1.358       .  S
C1249      C1250   1.411       .  A
C1250      F1253   1.357       .  S
C1251      C1254   1.407       .  A
C1251      C1258   1.403       .  A
C1254      C1255   1.405       .  A
C1254      F1259   1.358       .  S
C1255      C1256   1.411       .  A
C1255      F1261   1.357       .  S
C1256      C1257   1.415       .  A
C1257      C1258   1.402       .  A
C1257      F1260   1.358       .  S
C1258      F1262   1.358       .  S
C1265      C1266   1.406       .  A
C1265      C1270   1.402       .  A
C1265      F1283   1.358       .  S
C1266      C1271   1.478       .  S
C1266      C1267   1.402       .  A
C1267      C1268   1.395       .  A
C1267      F1272   1.358       .  S
C1268      C1269   1.408       .  A
C1268      F1284   1.358       .  S
C1269      C1270   1.406       .  A
C1270      F1273   1.358       .  S
C1271      C1274   1.401       .  A
C1271      C1278   1.404       .  A
C1274      C1275   1.397       .  A
C1274      F1279   1.358       .  S
C1275      C1276   1.412       .  A
C1275      F1281   1.358       .  S
C1276      C1277   1.412       .  A
C1277      C1278   1.400       .  A
C1277      F1280   1.358       .  S
C1278      F1282   1.358       .  S
C1285      C1286   1.400       .  A
C1285      C1290   1.399       .  A
C1285      F1303   1.358       .  S
C1286      C1291   1.477       .  S
C1286      C1287   1.402       .  A
C1287      C1288   1.400       .  A
C1287      F1292   1.358       .  S
C1288      C1289   1.413       .  A
C1288      F1304   1.358       .  S
C1289      C1290   1.416       .  A
C1290      F1293   1.358       .  S
C1291      C1294   1.395       .  A
C1291      C1298   1.404       .  A
C1294      C1295   1.392       .  A
C1294      F1299   1.359       .  S
C1295      C1296   1.417       .  A
C1295      F1301   1.353       .  S
C1296      C1297   1.415       .  A
C1297      C1298   1.407       .  A
C1297      F1300   1.357       .  S
C1298      F1302   1.357       .  S
C1305      C1306   1.408       .  A
C1305      C1310   1.410       .  A
C1305      F1323   1.357       .  S
C1306      C1311   1.487       .  S
C1306      C1307   1.396       .  A
C1307      C1308   1.397       .  A
C1307      F1312   1.359       .  S
C1308      C1309   1.420       .  A
C1308      F1324   1.354   1_556  S
C1309      C1310   1.411       .  A
C1310      F1313   1.357       .  S
C1311      C1314   1.409       .  A
C1311      C1318   1.403       .  A
C1314      C1315   1.406       .  A
C1314      F1319   1.357       .  S
C1315      C1316   1.404       .  A
C1315      F1321   1.357       .  S
C1316      C1317   1.408       .  A
C1317      C1318   1.400       .  A
C1317      F1320   1.358       .  S
C1318      F1322   1.358       .  S
C1325      C1326   1.407       .  A
C1325      C1330   1.401       .  A
C1325      F1343   1.358       .  S
C1326      C1331   1.472       .  S
C1326      C1327   1.398       .  A
C1327      C1328   1.394       .  A
C1327      F1332   1.358       .  S
C1328      C1329   1.413       .  A
C1328      F1344   1.359   1_455  S
C1329      C1330   1.405       .  A
C1330      F1333   1.357       .  S
C1331      C1334   1.398       .  A
C1331      C1338   1.407       .  A
C1334      C1335   1.392       .  A
C1334      F1339   1.358       .  S
C1335      C1336   1.411       .  A
C1335      F1341   1.359       .  S
C1336      C1337   1.405       .  A
C1337      C1338   1.403       .  A
C1337      F1340   1.357       .  S
C1338      F1342   1.358       .  S
C1345      C1346   1.400       .  A
C1345      C1350   1.393       .  A
C1345      F1363   1.359       .  S
C1346      C1351   1.490       .  S
C1346      C1347   1.412       .  A
C1347      C1348   1.411       .  A
C1347      F1352   1.357       .  S
C1348      C1349   1.408       .  A
C1348      F1364   1.357       .  S
C1349      C1350   1.415       .  A
C1350      F1353   1.359       .  S
C1351      C1354   1.408       .  A
C1351      C1358   1.408       .  A
C1354      C1355   1.405       .  A
C1354      F1359   1.358       .  S
C1355      C1356   1.406       .  A
C1355      F1361   1.358       .  S
C1356      C1357   1.403       .  A
C1357      C1358   1.400       .  A
C1357      F1360   1.358       .  S
C1358      F1362   1.358       .  S
C1365      C1366   1.410       .  A
C1365      C1370   1.402       .  A
C1365      F1383   1.358       .  S
C1366      C1371   1.494       .  S
C1366      C1367   1.409       .  A
C1367      C1368   1.403       .  A
C1367      F1372   1.358       .  S
C1368      C1369   1.404       .  A
C1368      F1384   1.358       .  S
C1369      C1370   1.404       .  A
C1370      F1373   1.358       .  S
C1371      C1374   1.412       .  A
C1371      C1378   1.405       .  A
C1374      C1375   1.406       .  A
C1374      F1379   1.358       .  S
C1375      C1376   1.406       .  A
C1375      F1381   1.358       .  S
C1376      C1377   1.410       .  A
C1377      C1378   1.397       .  A
C1377      F1380   1.358       .  S
C1378      F1382   1.358       .  S
C1385      C1386   1.407       .  A
C1385      C1390   1.405       .  A
C1385      F1403   1.357       .  S
C1386      C1391   1.480       .  S
C1386      C1387   1.402       .  A
C1387      C1388   1.397       .  A
C1387      F1392   1.358       .  S
C1388      C1389   1.408       .  A
C1388      F1404   1.358       .  S
C1389      C1390   1.404       .  A
C1390      F1393   1.357       .  S
C1391      C1394   1.401       .  A
C1391      C1398   1.407       .  A
C1394      C1395   1.397       .  A
C1394      F1399   1.358       .  S
C1395      C1396   1.408       .  A
C1395      F1401   1.358       .  S
C1396      C1397   1.406       .  A
C1397      C1398   1.405       .  A
C1397      F1400   1.357       .  S
C1398      F1402   1.358       .  S
C1405      C1406   1.405       .  A
C1405      C1410   1.400       .  A
C1405      F1423   1.358       .  S
C1406      C1411   1.490       .  S
C1406      C1407   1.406       .  A
C1407      C1408   1.403       .  A
C1407      F1412   1.358       .  S
C1408      C1409   1.412       .  A
C1408      F1424   1.357       .  S
C1409      C1410   1.414       .  A
C1410      F1413   1.358       .  S
C1411      C1414   1.411       .  A
C1411      C1418   1.404       .  A
C1414      C1415   1.408       .  A
C1414      F1419   1.358       .  S
C1415      C1416   1.407       .  A
C1415      F1421   1.357       .  S
C1416      C1417   1.410       .  A
C1417      C1418   1.395       .  A
C1417      F1420   1.359   1_655  S
C1418      F1422   1.358       .  S
C1425      C1426   1.400       .  A
C1425      C1430   1.397       .  A
C1425      F1443   1.358       .  S
C1426      C1431   1.487       .  S
C1426      C1427   1.410       .  A
C1427      C1428   1.405       .  A
C1427      F1432   1.358       .  S
C1428      C1429   1.407       .  A
C1428      F1444   1.357       .  S
C1429      C1430   1.415       .  A
C1430      F1433   1.358   1_455  S
C1431      C1434   1.411       .  A
C1431      C1438   1.401       .  A
C1434      C1435   1.407       .  A
C1434      F1439   1.358       .  S
C1435      C1436   1.406       .  A
C1435      F1441   1.357       .  S
C1436      C1437   1.410       .  A
C1437      C1438   1.396       .  A
C1437      F1440   1.358       .  S
C1438      F1442   1.358       .  S
C1445      C1446   1.410       .  A
C1445      C1450   1.408       .  A
C1445      F1463   1.357       .  S
C1446      C1451   1.490       .  S
C1446      C1447   1.400       .  A
C1447      C1448   1.395       .  A
C1447      F1452   1.359       .  S
C1448      C1449   1.418       .  A
C1448      F1464   1.357       .  S
C1449      C1450   1.410       .  A
C1450      F1453   1.357       .  S
C1451      C1454   1.410       .  A
C1451      C1458   1.407       .  A
C1454      C1455   1.402       .  A
C1454      F1459   1.358       .  S
C1455      C1456   1.403       .  A
C1455      F1461   1.358       .  S
C1456      C1457   1.406       .  A
C1457      C1458   1.402       .  A
C1457      F1460   1.358       .  S
C1458      F1462   1.358       .  S
C1465      C1466   1.401       .  A
C1465      C1470   1.396       .  A
C1465      F1483   1.358       .  S
C1466      C1471   1.479       .  S
C1466      C1467   1.404       .  A
C1467      C1468   1.402       .  A
C1467      F1472   1.358       .  S
C1468      C1469   1.413       .  A
C1468      F1484   1.358       .  S
C1469      C1470   1.415       .  A
C1470      F1473   1.358       .  S
C1471      C1474   1.401       .  A
C1471      C1478   1.407       .  A
C1474      C1475   1.393       .  A
C1474      F1479   1.358       .  S
C1475      C1476   1.408       .  A
C1475      F1481   1.358   1_655  S
C1476      C1477   1.407       .  A
C1477      C1478   1.405       .  A
C1477      F1480   1.357       .  S
C1478      F1482   1.358       .  S
C1485      C1486   1.407       .  A
C1485      C1490   1.403       .  A
C1485      F1503   1.358       .  S
C1486      C1491   1.495       .  S
C1486      C1487   1.412       .  A
C1487      C1488   1.403       .  A
C1487      F1492   1.358       .  S
C1488      C1489   1.403       .  A
C1488      F1504   1.358       .  S
C1489      C1490   1.409       .  A
C1490      F1493   1.358       .  S
C1491      C1494   1.412       .  A
C1491      C1498   1.400       .  A
C1494      C1495   1.410       .  A
C1494      F1499   1.358       .  S
C1495      C1496   1.412       .  A
C1495      F1501   1.357       .  S
C1496      C1497   1.420       .  A
C1497      C1498   1.395       .  A
C1497      F1500   1.358       .  S
C1498      F1502   1.358       .  S
C1505      C1506   1.409       .  A
C1505      C1510   1.404       .  A
C1505      F1523   1.358       .  S
C1506      C1511   1.486       .  S
C1506      C1507   1.404       .  A
C1507      C1508   1.398       .  A
C1507      F1512   1.358       .  S
C1508      C1509   1.409       .  A
C1508      F1524   1.358   1_556  S
C1509      C1510   1.405       .  A
C1510      F1513   1.357       .  S
C1511      C1514   1.406       .  A
C1511      C1518   1.409       .  A
C1514      C1515   1.399       .  A
C1514      F1519   1.358       .  S
C1515      C1516   1.404       .  A
C1515      F1521   1.358       .  S
C1516      C1517   1.403       .  A
C1517      C1518   1.402       .  A
C1517      F1520   1.358       .  S
C1518      F1522   1.358       .  S
C1525      C1526   1.399       .  A
C1525      C1530   1.396       .  A
C1525      F1543   1.358       .  S
C1526      C1531   1.488       .  S
C1526      C1527   1.411       .  A
C1527      C1528   1.409       .  A
C1527      F1532   1.358       .  S
C1528      C1529   1.408       .  A
C1528      F1544   1.357       .  S
C1529      C1530   1.415       .  A
C1530      F1533   1.356       .  S
C1531      C1534   1.400       .  A
C1531      C1538   1.412       .  A
C1534      C1535   1.396       .  A
C1534      F1539   1.358       .  S
C1535      C1536   1.413       .  A
C1535      F1541   1.359       .  S
C1536      C1537   1.407       .  A
C1537      C1538   1.408       .  A
C1537      F1540   1.357       .  S
C1538      F1542   1.358       .  S
C1545      C1546   1.410       .  A
C1545      C1550   1.409       .  A
C1545      F1563   1.357       .  S
C1546      C1551   1.487       .  S
C1546      C1547   1.402       .  A
C1547      C1548   1.394       .  A
C1547      F1552   1.358       .  S
C1548      C1549   1.410       .  A
C1548      F1564   1.357   1_554  S
C1549      C1550   1.408       .  A
C1550      F1553   1.357       .  S
C1551      C1554   1.403       .  A
C1551      C1558   1.405       .  A
C1554      C1555   1.399       .  A
C1554      F1559   1.358       .  S
C1555      C1556   1.415       .  A
C1555      F1561   1.358       .  S
C1556      C1557   1.413       .  A
C1557      C1558   1.405       .  A
C1557      F1560   1.357       .  S
C1558      F1562   1.358       .  S
