geometry optimzed in LAMMPS
_audit_creation_date              2020-11-30 
_audit_creation_method            'lammps2cif' 
_symmetry_space_group_name_H-M    'P1' 
_symmetry_Int_Tables_number       1 
_symmetry_cell_setting            triclinic 
loop_ 
_symmetry_equiv_pos_as_xyz 
  x,y,z 
_cell_length_a                    45.78777829 
_cell_length_b                    45.76046642839902 
_cell_length_c                    46.084388988868525 
_cell_angle_alpha                 89.52055448015301 
_cell_angle_beta                  89.62768337414983 
_cell_angle_gamma                 89.49618080152585 
loop_ 
_atom_site_label 
_atom_site_type_symbol 
_atom_site_fract_x 
_atom_site_fract_y 
_atom_site_fract_z 
_atom_site_charge 
Zn1        Zn  0.48102967  0.52595236  0.02027097     1.49700
Zn2        Zn  0.52954320  0.47474116  0.02053064     1.49400
Zn3        Zn  0.47915357  0.47627300  0.97088424     1.49100
Zn4        Zn  0.53065583  0.52476196  0.96996190     1.49500
O5          O  0.50520239  0.50031879  0.99526323    -1.83200
O6          O  0.48929937  0.51939017  0.06318561    -0.73800
O7          O  0.52100253  0.43152176  0.01231538    -0.73700
O8          O  0.43587329  0.48478389  0.98037915    -0.73200
O9          O  0.52175345  0.48310354  0.06377986    -0.73800
O10         O  0.43782422  0.51871597  0.01445197    -0.73400
O11         O  0.48659881  0.43252337  0.97845581    -0.74000
O12         O  0.52261900  0.51691362  0.92669537    -0.73400
O13         O  0.57312546  0.48240534  0.01357973    -0.74200
O14         O  0.48652202  0.48471982  0.92745626    -0.73600
O15         O  0.57394591  0.51669366  0.97912963    -0.74000
O16         O  0.52278951  0.56846752  0.97696876    -0.73900
O17         O  0.48849600  0.56864897  0.01125454    -0.73700
C18         C  0.50567348  0.50163603  0.07719744     0.78100
C19         C  0.50365023  0.41820227  0.99533763     0.78500
C20         C  0.42307988  0.50197939  0.99823543     0.77500
C21         C  0.50432267  0.50097860  0.91331528     0.77900
C22         C  0.58732986  0.49977860  0.99696959     0.79000
C23         C  0.50544484  0.58233561  0.99390253     0.78100
Zn24       Zn  0.47062222  0.97816519  0.46137363     1.49700
Zn25       Zn  0.52041880  0.02702924  0.46010808     1.49400
Zn26       Zn  0.47017912  0.02855224  0.51040308     1.49100
Zn27       Zn  0.52044231  0.97834446  0.51046203     1.49500
O28         O  0.49529263  0.00316447  0.48567564    -1.83200
O29         O  0.47838892  0.98446920  0.41815985    -0.73800
O30         O  0.51248649  0.07009632  0.46693772    -0.73700
O31         O  0.42674305  0.02009917  0.50312424    -0.73200
O32         O  0.51266087  0.01845238  0.41749339    -0.73800
O33         O  0.42746242  0.98598241  0.46908174    -0.73400
O34         O  0.47800051  0.07177943  0.50110516    -0.74000
O35         O  0.51318623  0.98712299  0.55291745    -0.73400
O36         O  0.56378341  0.01922928  0.46753065    -0.74200
O37         O  0.47864121  0.02149579  0.55384108    -0.73600
O38         O  0.56346776  0.98521379  0.50210758    -0.74000
O39         O  0.51278726  0.93507063  0.50426745    -0.73900
O40         O  0.47857784  0.93542685  0.47035013    -0.73700
C41         C  0.49571039  0.00117890  0.40414224     0.78100
C42         C  0.49546930  0.08468040  0.48353641     0.78500
C43         C  0.41332142  0.00281824  0.48618350     0.77500
C44         C  0.49637221  0.00431350  0.56706023     0.77900
C45         C  0.57739946  0.00192810  0.48470926     0.79000
C46         C  0.49554633  0.92151145  0.48754272     0.78100
Zn47       Zn  0.98130442  0.52209106  0.49209029     1.49700
Zn48       Zn  0.03205824  0.52113119  0.54048568     1.49400
Zn49       Zn  0.98152052  0.47138649  0.54175591     1.49100
Zn50       Zn  0.03110445  0.47134233  0.49092148     1.49500
O51         O  0.00644387  0.49641850  0.51636245    -1.83200
O52         O  0.98922882  0.56530673  0.50007253    -0.73800
O53         O  0.02433856  0.51360615  0.58349112    -0.73700
O54         O  0.93780603  0.47937003  0.53395066    -0.73200
O55         O  0.02481405  0.56481802  0.53275940    -0.73800
O56         O  0.93786888  0.51392734  0.49962076    -0.73400
O57         O  0.98969191  0.47967601  0.58472843    -0.74000
O58         O  0.02266469  0.42810701  0.49837048    -0.73400
O59         O  0.07520386  0.51260658  0.53206689    -0.74200
O60         O  0.98946810  0.42773203  0.53394392    -0.73600
O61         O  0.07447369  0.47839029  0.49799555    -0.74000
O62         O  0.02343699  0.48010546  0.44788814    -0.73900
O63         O  0.98940622  0.51514240  0.44906900    -0.73700
C64         C  0.00708081  0.57871581  0.51632807     0.78100
C65         C  0.00709770  0.49689279  0.59760974     0.78500
C66         C  0.92416403  0.49657347  0.51663370     0.77500
C67         C  0.00595624  0.41428288  0.51589296     0.77900
C68         C  0.08843150  0.49538076  0.51465922     0.79000
C69         C  0.00636940  0.49807190  0.43495808     0.78100
Zn70       Zn  0.96941294  0.97679377  0.02734012     1.49700
Zn71       Zn  0.01438113  0.97486017  0.97363010     1.49400
Zn72       Zn  0.96701403  0.02764424  0.97794285     1.49100
Zn73       Zn  0.02100645  0.02461962  0.02201320     1.49500
O74         O  0.99287916  0.00097972  0.00023339    -1.83200
O75         O  0.97764880  0.93321481  0.02170305    -0.73800
O76         O  0.00498363  0.98481039  0.93158403    -0.73700
O77         O  0.92438897  0.01851502  0.98632564    -0.73200
O78         O  0.00516892  0.93200636  0.98173776    -0.73800
O79         O  0.92583736  0.98419494  0.02090250    -0.73400
O80         O  0.97335541  0.02202169  0.93440028    -0.74000
O81         O  0.01429783  0.06824014  0.01516873    -0.73400
O82         O  0.05818007  0.97875927  0.97906047    -0.74200
O83         O  0.97416565  0.07064997  0.98820855    -0.73600
O84         O  0.06313508  0.01380652  0.01183772    -0.74000
O85         O  0.01547338  0.01797196  0.06519902    -0.73900
O86         O  0.97894630  0.98631584  0.06923025    -0.73700
C87         C  0.99153847  0.91900502  0.00224355     0.78100
C88         C  0.98862133  0.00401421  0.91955072     0.78500
C89         C  0.91156697  0.00104827  0.00381681     0.77500
C90         C  0.99429622  0.08305215  0.00253616     0.77900
C91         C  0.07414101  0.99485810  0.99473899     0.79000
C92         C  0.99795239  0.00279660  0.08058831     0.78100
C93         C  0.66663342  0.52317083  0.98430911     0.04100
C94         C  0.68083739  0.50654982  0.00559633    -0.12100
C95         C  0.66563264  0.48676866  0.02311058     0.01600
C96         C  0.63529901  0.48364424  0.01963747    -0.10600
C97         C  0.61998852  0.50100624  0.99907823     0.04000
C98         C  0.63608286  0.52051165  0.98129002    -0.10000
H99         H  0.70427532  0.50835413  0.00816753     0.09600
H100        H  0.62366937  0.46831041  0.03340637     0.07200
H101        H  0.62472145  0.53374202  0.96535082     0.07000
C102        C  0.34583738  0.52119226  0.02351804     0.04100
C103        C  0.37631009  0.52160059  0.02022652    -0.12100
C104        C  0.39047754  0.50240330  0.00070845     0.01600
C105        C  0.37324832  0.48325411  0.98422663    -0.10600
C106        C  0.34249622  0.48297768  0.98735269     0.04000
C107        C  0.32923771  0.50197203  0.00718638    -0.10000
H108        H  0.38886949  0.53654058  0.03320125     0.09600
H109        H  0.38385869  0.46869380  0.96902846     0.07200
H110        H  0.30571257  0.50189464  0.01006203     0.07000
C111        C  0.02014436  0.52127293  0.35666417     0.04100
C112        C  0.02381456  0.51795633  0.38686433    -0.12100
C113        C  0.00553878  0.49891145  0.40284549     0.01600
C114        C  0.98476394  0.48213006  0.38810130    -0.10600
C115        C  0.98114802  0.48551256  0.35798198     0.04000
C116        C  0.99836772  0.50555311  0.34274793    -0.10000
H117        H  0.04004459  0.53076158  0.39794376     0.09600
H118        H  0.97087203  0.46721499  0.40013563     0.07200
H119        H  0.99558573  0.50808598  0.31949628     0.07000
C120        C  0.01685160  0.16214524  0.99143542     0.04100
C121        C  0.01513197  0.13155616  0.98840509    -0.12100
C122        C  0.99469690  0.11534783  0.00474035     0.01600
C123        C  0.97602907  0.12999052  0.02443057    -0.10600
C124        C  0.97856977  0.16035472  0.02834662     0.04000
C125        C  0.99877333  0.17604867  0.01172108    -0.10000
H126        H  0.02929304  0.12031167  0.97317116     0.09600
H127        H  0.96055497  0.11770038  0.03744910     0.07200
H128        H  0.00038502  0.19946601  0.01468878     0.07000
C129        C  0.02649307  0.48069351  0.67629270     0.04100
C130        C  0.02548275  0.47891208  0.64575586    -0.12100
C131        C  0.00721321  0.49787519  0.62972295     0.01600
C132        C  0.98980958  0.51860040  0.64441741    -0.10600
C133        C  0.99057507  0.52047245  0.67495547     0.04000
C134        C  0.00906061  0.50154859  0.69038253    -0.10000
H135        H  0.03901512  0.46321664  0.63433591     0.09600
H136        H  0.97598669  0.53323525  0.63193040     0.07200
H137        H  0.00963073  0.50285231  0.71383303     0.00200
Zn138      Zn  0.23539478  0.31538532  0.83132954     1.49700
Zn139      Zn  0.16897426  0.33350524  0.85054718     1.49400
Zn140      Zn  0.18663142  0.31355631  0.78516257     1.49100
Zn141      Zn  0.18809393  0.26622415  0.83454396     1.49500
O142        O  0.19422986  0.30756633  0.82596104    -1.83200
O143        O  0.24021197  0.34436824  0.86190101    -0.73800
O144        O  0.14288060  0.35977936  0.82330431    -0.73700
O145        O  0.22205765  0.32457013  0.76226534    -0.73200
O146        O  0.19602641  0.35975893  0.87605821    -0.73800
O147        O  0.25653445  0.32827342  0.79545808    -0.73400
O148        O  0.15665060  0.34335284  0.77988248    -0.74000
O149        O  0.17414199  0.24349450  0.79992516    -0.73400
O150        O  0.14253316  0.30692886  0.87719661    -0.74200
O151        O  0.17360734  0.27755729  0.76548654    -0.73600
O152        O  0.15909984  0.26251859  0.86555508    -0.74000
O153        O  0.22479311  0.24483152  0.84630594    -0.73900
O154        O  0.25806906  0.27936529  0.84061964    -0.73700
C155        C  0.22400180  0.36051274  0.87757642     0.78100
C156        C  0.14108699  0.36003183  0.79552155     0.78500
C157        C  0.24851525  0.32835838  0.76917949     0.77500
C158        C  0.17083324  0.25117158  0.77357829     0.77900
C159        C  0.14235532  0.27900664  0.88025319     0.79000
C160        C  0.25121449  0.25295202  0.84512569     0.78100
C161        C  0.01472941  0.84215111  0.02347500     0.04100
C162        C  0.01197689  0.87272771  0.02333348    -0.12100
C163        C  0.99269111  0.88672052  0.00387610     0.01600
C164        C  0.97551026  0.86972412  0.98530169    -0.10600
C165        C  0.97753677  0.83894012  0.98605941     0.04000
C166        C  0.99774443  0.82561636  0.00483839    -0.10000
H167        H  0.02534948  0.88557969  0.03765483     0.09600
H168        H  0.96053586  0.88048076  0.97046971     0.07200
H169        H  0.00058461  0.80214116  0.00525521     0.07000
Zn170      Zn  0.83766318  0.67044625  0.83767600     1.49700
Zn171      Zn  0.81650738  0.73594892  0.81636256     1.49400
Zn172      Zn  0.82054978  0.68560268  0.77084257     1.49100
Zn173      Zn  0.77145403  0.68505784  0.81729055     1.49500
O174        O  0.81214203  0.69403076  0.81117456    -1.83200
O175        O  0.86157892  0.69946280  0.86272855    -0.73800
O176        O  0.82787779  0.75682289  0.77921823    -0.73700
O177        O  0.85113693  0.65604622  0.76798550    -0.73200
O178        O  0.84659129  0.74263085  0.84525509    -0.73800
O179        O  0.86622616  0.64449569  0.81255550    -0.73400
O180        O  0.83256576  0.72037410  0.74806942    -0.74000
O181        O  0.75092957  0.67375744  0.78138037    -0.73400
O182        O  0.77939920  0.75594178  0.82990106    -0.74200
O183        O  0.78595753  0.67376955  0.74806707    -0.73600
O184        O  0.74782948  0.71949697  0.82916853    -0.74000
O185        O  0.76720437  0.65467836  0.84674034    -0.73900
O186        O  0.81123799  0.64396741  0.86444444    -0.73700
C187        C  0.86240282  0.72747756  0.86226810     0.78100
C188        C  0.83266023  0.74738340  0.75374773     0.78500
C189        C  0.86780424  0.64178979  0.78488220     0.77500
C190        C  0.75925448  0.67214990  0.75516628     0.77900
C191        C  0.75354771  0.74631021  0.83227890     0.79000
C192        C  0.78343589  0.64059536  0.86418956     0.78100
Zn193      Zn  0.79757221  0.30827707  0.21822138     1.49700
Zn194      Zn  0.81237172  0.36850071  0.19891346     1.49400
Zn195      Zn  0.86233600  0.31627031  0.20349613     1.49100
Zn196      Zn  0.81182600  0.31362762  0.15530461     1.49500
O197        O  0.82284684  0.32771534  0.19259127    -1.83200
O198        O  0.78806251  0.33273277  0.25187736    -0.73800
O199        O  0.84677779  0.38762148  0.21898078    -0.73700
O200        O  0.86310622  0.28204315  0.23284529    -0.73200
O201        O  0.77592028  0.37131486  0.22558535    -0.73800
O202        O  0.81577635  0.27231513  0.23288744    -0.73400
O203        O  0.87978875  0.35132414  0.22336089    -0.74000
O204        O  0.84689293  0.29508529  0.13666101    -0.73400
O205        O  0.80051046  0.38688945  0.16041392    -0.74200
O206        O  0.88392423  0.30081427  0.16744870    -0.73600
O207        O  0.79511396  0.34768263  0.13228882    -0.74000
O208        O  0.78141363  0.28159025  0.15890272    -0.73900
O209        O  0.76040377  0.29652259  0.19953499    -0.73700
C210        C  0.77152528  0.35451592  0.24732087     0.78100
C211        C  0.87111554  0.37745023  0.22837696     0.78500
C212        C  0.84173464  0.26582135  0.23999280     0.77500
C213        C  0.87353629  0.29121284  0.14364543     0.77900
C214        C  0.79218862  0.37507300  0.13686393     0.79000
C215        C  0.76090210  0.28001438  0.17758135     0.78100
Zn216      Zn  0.20090728  0.70135512  0.20580446     1.49700
Zn217      Zn  0.13683148  0.68814171  0.19463987     1.49400
Zn218      Zn  0.18907751  0.68882924  0.14299751     1.49100
Zn219      Zn  0.19020030  0.63730117  0.19577743     1.49500
O220        O  0.17810913  0.67773315  0.18371336    -1.83200
O221        O  0.17852790  0.72654161  0.22954545    -0.73800
O222        O  0.11770914  0.70504058  0.15831233    -0.73700
O223        O  0.22167450  0.72086504  0.13692407    -0.73200
O224        O  0.13119275  0.72065811  0.22654070    -0.73800
O225        O  0.22620952  0.72586510  0.18387060    -0.73400
O226        O  0.15241505  0.70501261  0.12374379    -0.74000
O227        O  0.20595632  0.61755173  0.15955545    -0.73400
O228        O  0.11806191  0.65117662  0.21137689    -0.74200
O229        O  0.20586206  0.65229517  0.12486681    -0.73600
O230        O  0.15464515  0.61838258  0.21428384    -0.74000
O231        O  0.22352941  0.63302593  0.22696342    -0.73900
O232        O  0.22614823  0.68055309  0.23129192    -0.73700
C233        C  0.15303136  0.73353411  0.23735486     0.78100
C234        C  0.12663332  0.71139465  0.13267672     0.78500
C235        C  0.23381917  0.73284646  0.15845599     0.77500
C236        C  0.21232309  0.62659480  0.13394895     0.77900
C237        C  0.12832367  0.62633096  0.21956507     0.79000
C238        C  0.23464765  0.65534100  0.23866381     0.78100
C239        C  0.52440213  0.33843609  0.01161114     0.04100
C240        C  0.52404927  0.36929823  0.01167695    -0.12100
C241        C  0.50341410  0.38540250  0.99520513     0.01600
C242        C  0.48287138  0.36987411  0.97856635    -0.10600
C243        C  0.48311509  0.33908307  0.97841568     0.04000
C244        C  0.50380621  0.32376711  0.99488126    -0.10000
H245        H  0.53977155  0.38090129  0.02453197     0.09600
H246        H  0.46693468  0.38159303  0.96555418     0.07200
H247        H  0.50388911  0.30007915  0.99438876     0.07000
C248        C  0.51935384  0.66179706  0.97205026     0.04100
C249        C  0.49836763  0.67618481  0.98900520    -0.12100
C250        C  0.48156738  0.66079881  0.00931034     0.01600
C251        C  0.48459125  0.63026393  0.01143513    -0.10600
C252        C  0.50434617  0.61498219  0.99322264     0.04000
C253        C  0.52235694  0.63120648  0.97410133    -0.10000
H254        H  0.49615139  0.69976432  0.98742374     0.09600
H255        H  0.47104403  0.61846572  0.02683481     0.07200
H256        H  0.53824453  0.62015384  0.96045448     0.07000
C257        C  0.51372636  0.02123379  0.32547414     0.04100
C258        C  0.51380990  0.02051048  0.35605625    -0.12100
C259        C  0.49608863  0.00076604  0.37172284     0.01600
C260        C  0.47856636  0.98114452  0.35613276    -0.10600
C261        C  0.47816126  0.98198936  0.32559945     0.04000
C262        C  0.49562735  0.00203101  0.31060639    -0.10000
H263        H  0.52763831  0.03528986  0.36778042     0.09600
H264        H  0.46474231  0.96575413  0.36760791     0.07200
H265        H  0.49510291  0.00254903  0.28708745     0.07000
C266        C  0.15349236  0.00258395  0.97188733     0.04100
C267        C  0.12330543  0.00813013  0.97471291    -0.12100
C268        C  0.10612165  0.99080811  0.99342908     0.01600
C269        C  0.11956206  0.96894204  0.01048032    -0.10600
C270        C  0.14968587  0.96347074  0.00776595     0.04000
C271        C  0.16620622  0.97969116  0.98781843    -0.10000
H272        H  0.11315340  0.02544553  0.96204416     0.09600
H273        H  0.10662830  0.95613650  0.02562475     0.07200
H274        H  0.18953829  0.97570549  0.98607379     0.07000
C275        C  0.83246595  0.01434566  0.02568237     0.04100
C276        C  0.81824746  0.99713547  0.00515758    -0.12100
C277        C  0.83401194  0.98209578  0.98378881     0.01600
C278        C  0.86457901  0.98391489  0.98295740    -0.10600
C279        C  0.87935263  0.00012015  0.00402706     0.04000
C280        C  0.86321029  0.01550552  0.02515512    -0.10000
H281        H  0.79464832  0.99607072  0.00491807     0.09600
H282        H  0.87684065  0.97214673  0.96652467     0.07200
H283        H  0.87458768  0.02850378  0.04097433     0.07000
Zn284      Zn  0.70321763  0.80039453  0.78987804     1.49700
Zn285      Zn  0.69313858  0.81699088  0.85007923     1.49400
Zn286      Zn  0.69275876  0.86437925  0.79758313     1.49100
Zn287      Zn  0.64161610  0.81453634  0.80188520     1.49500
O288        O  0.68075003  0.82642152  0.81130160    -1.83200
O289        O  0.71049221  0.76429661  0.81266344    -0.73800
O290        O  0.70702071  0.85411174  0.86859264    -0.73700
O291        O  0.72391584  0.86087475  0.76549653    -0.73200
O292        O  0.72854899  0.78915942  0.84893059    -0.73800
O293        O  0.74102425  0.81745785  0.77874790    -0.73400
O294        O  0.71069493  0.88603466  0.83165436    -0.74000
O295        O  0.62233192  0.84938052  0.78158684    -0.73400
O296        O  0.65903651  0.79688532  0.87075026    -0.74200
O297        O  0.65705041  0.88367237  0.77972054    -0.73600
O298        O  0.62220029  0.80023550  0.83905966    -0.74000
O299        O  0.64143653  0.77973939  0.77344661    -0.73900
O300        O  0.68416846  0.78970176  0.75349245    -0.73700
C301        C  0.72919842  0.76696809  0.83250927     0.78100
C302        C  0.71486769  0.87882555  0.85821403     0.78500
C303        C  0.74273534  0.84034557  0.76313528     0.77500
C304        C  0.63143511  0.87462913  0.77370519     0.77900
C305        C  0.63253292  0.79213300  0.86361195     0.79000
C306        C  0.66053028  0.77567524  0.75363483     0.78100
C307        C  0.48005303  0.01998739  0.64713584     0.04100
C308        C  0.47933806  0.02200634  0.61659248    -0.12100
C309        C  0.49759106  0.00375989  0.59948836     0.01600
C310        C  0.51706669  0.98427992  0.61371458    -0.10600
C311        C  0.51798187  0.98277760  0.64409587     0.04000
C312        C  0.49928524  0.00033403  0.66051635    -0.10000
H313        H  0.46425967  0.03718451  0.60633030     0.09600
H314        H  0.53157250  0.97026501  0.60129662     0.07200
H315        H  0.49997159  0.99892757  0.68402269     0.07000
Zn316      Zn  0.36203268  0.18481369  0.81285216     1.49700
Zn317      Zn  0.31015027  0.18015772  0.86154997     1.49400
Zn318      Zn  0.29982737  0.19467529  0.79957612     1.49100
Zn319      Zn  0.31447851  0.13241029  0.80928316     1.49500
O320        O  0.32358140  0.17115402  0.82278105    -1.83200
O321        O  0.37988400  0.20101247  0.84962666    -0.73800
O322        O  0.27661313  0.21000655  0.86090207    -0.73700
O323        O  0.31939015  0.20519019  0.76252860    -0.73200
O324        O  0.34434807  0.19901527  0.88328439    -0.73800
O325        O  0.36014084  0.21901791  0.78349172    -0.73400
O326        O  0.28919776  0.23131885  0.81954434    -0.74000
O327        O  0.28619025  0.13476797  0.77448040    -0.73400
O328        O  0.29216538  0.14331041  0.87845665    -0.74200
O329        O  0.26338101  0.17433111  0.79010804    -0.73600
O330        O  0.29444383  0.11036595  0.84273567    -0.74000
O331        O  0.35183346  0.11378925  0.79437636    -0.73900
O332        O  0.38370240  0.15071021  0.79339871    -0.73700
C333        C  0.36999228  0.20671454  0.87502074     0.78100
C334        C  0.27405915  0.23081923  0.84262857     0.78500
C335        C  0.34174376  0.22126307  0.76296604     0.77500
C336        C  0.26494512  0.15287162  0.77301044     0.77900
C337        C  0.28627083  0.11817655  0.86817829     0.79000
C338        C  0.37665565  0.12442207  0.78736910     0.78100
Zn339      Zn  0.29993791  0.85228219  0.18890687     1.49700
Zn340      Zn  0.35263645  0.80013520  0.19031943     1.49400
Zn341      Zn  0.28912152  0.78854405  0.20264878     1.49100
Zn342      Zn  0.30142500  0.79914733  0.13867269     1.49500
O343        O  0.31189102  0.81125919  0.17893791    -1.83200
O344        O  0.33686328  0.87270507  0.20314097    -0.73800
O345        O  0.35812814  0.76831975  0.22322942    -0.73700
O346        O  0.26296598  0.80989467  0.22643374    -0.73200
O347        O  0.37096272  0.83719473  0.20535970    -0.73800
O348        O  0.26667919  0.85730960  0.22102489    -0.73400
O349        O  0.31074041  0.76423067  0.22805396    -0.74000
O350        O  0.26873645  0.76660431  0.13502597    -0.73400
O351        O  0.37242086  0.78325048  0.15445348    -0.74200
O352        O  0.26467530  0.76312914  0.18229999    -0.73600
O353        O  0.33855096  0.78369932  0.11953605    -0.74000
O354        O  0.28569494  0.83520376  0.11823699    -0.73900
O355        O  0.28295718  0.87005649  0.15209508    -0.73700
C356        C  0.36253879  0.86352554  0.20969537     0.78100
C357        C  0.33612054  0.75671263  0.23549049     0.78500
C358        C  0.25468539  0.83526160  0.23305165     0.77500
C359        C  0.25693195  0.75522486  0.15748970     0.77900
C360        C  0.36424588  0.77763011  0.12863397     0.79000
C361        C  0.27819973  0.86080395  0.12647220     0.78100
Zn362      Zn  0.66661427  0.17079383  0.16515331     1.49700
Zn363      Zn  0.67808735  0.23629025  0.18859186     1.49400
Zn364      Zn  0.68414596  0.18545923  0.23113360     1.49100
Zn365      Zn  0.73071032  0.19286127  0.18269307     1.49500
O366        O  0.68957165  0.19552052  0.19094932    -1.83200
O367        O  0.64394136  0.19810687  0.13659135    -0.73800
O368        O  0.65684724  0.25165906  0.22394815    -0.73700
O369        O  0.64924831  0.16114553  0.23526118    -0.73200
O370        O  0.65426210  0.24236603  0.15361630    -0.73800
O371        O  0.63767641  0.14672421  0.19060330    -0.73400
O372        O  0.68034532  0.22218254  0.25419400    -0.74000
O373        O  0.75215089  0.18212916  0.21922302    -0.73400
O374        O  0.71361555  0.26160458  0.18546321    -0.74200
O375        O  0.71828795  0.16513430  0.24948970    -0.73600
O376        O  0.74806509  0.23111292  0.16963713    -0.74000
O377        O  0.73833627  0.16260503  0.15343253    -0.73900
O378        O  0.69523042  0.14357915  0.14217978    -0.73700
C379        C  0.64204649  0.22606855  0.13519722     0.78100
C380        C  0.66791965  0.24648712  0.24864547     0.78500
C381        C  0.63358775  0.14641852  0.21816319     0.77500
C382        C  0.74465636  0.17110528  0.24355039     0.77900
C383        C  0.73944008  0.25665816  0.17639707     0.79000
C384        C  0.72313533  0.14425764  0.13970977     0.78100
C385        C  0.48574391  0.52119586  0.15555710     0.04100
C386        C  0.48549013  0.52030272  0.12502029    -0.12100
C387        C  0.50593795  0.50267817  0.10967423     0.01600
C388        C  0.52660496  0.48608546  0.12569665    -0.10600
C389        C  0.52632734  0.48654316  0.15623361     0.04000
C390        C  0.50591657  0.50405766  0.17075901    -0.10000
H391        H  0.46962211  0.53348873  0.11334966     0.09600
H392        H  0.54243050  0.47238521  0.11457446     0.07200
H393        H  0.50585000  0.50455976  0.19429720     0.07000
C394        C  0.84422303  0.51427418  0.53356909     0.04100
C395        C  0.87505516  0.51407514  0.53485856    -0.12100
C396        C  0.89168906  0.49624904  0.51592416     0.01600
C397        C  0.87710640  0.47884404  0.49551128    -0.10600
C398        C  0.84639990  0.47963243  0.49378018     0.04000
C399        C  0.83040585  0.49710943  0.51292542    -0.10000
H400        H  0.88605783  0.52759544  0.55049157     0.09600
H401        H  0.88959336  0.46535196  0.48062977     0.07200
H402        H  0.80676693  0.49754627  0.51148031     0.07000
Zn403      Zn  0.70410942  0.31222214  0.35597660     1.49700
Zn404      Zn  0.70443120  0.36878829  0.31241744     1.49400
Zn405      Zn  0.71704470  0.30911586  0.29196283     1.49100
Zn406      Zn  0.65363869  0.31974347  0.30738788     1.49500
O407        O  0.69316861  0.32840798  0.31877070    -1.83200
O408        O  0.72009870  0.34574851  0.37959938    -0.73800
O409        O  0.74134270  0.37074471  0.28665998    -0.73700
O410        O  0.75409373  0.29581797  0.30935208    -0.73200
O411        O  0.71525305  0.38574957  0.35150724    -0.73800
O412        O  0.73632183  0.28120848  0.35178300    -0.73400
O413        O  0.72648348  0.33504996  0.25882831    -0.74000
O414        O  0.65220211  0.28851114  0.27548461    -0.73400
O415        O  0.67114834  0.38954754  0.29106487    -0.74200
O416        O  0.69839326  0.27382622  0.27727389    -0.73600
O417        O  0.63499848  0.35687636  0.29162605    -0.74000
O418        O  0.63278653  0.30175783  0.34192589    -0.73900
O419        O  0.66854516  0.29205212  0.37355308    -0.73700
C420        C  0.72307151  0.37320247  0.37517243     0.78100
C421        C  0.74445083  0.35513948  0.26410448     0.78500
C422        C  0.75545287  0.27947938  0.33166276     0.77500
C423        C  0.67244986  0.27050394  0.26869298     0.77900
C424        C  0.64517664  0.38192572  0.28468900     0.79000
C425        C  0.64203960  0.28986367  0.36536041     0.78100
C426        C  0.47893609  0.16534063  0.49884726     0.04100
C427        C  0.47820396  0.13453169  0.50040165    -0.12100
C428        C  0.49626712  0.11728914  0.48220088     0.01600
C429        C  0.51566470  0.13149574  0.46285911    -0.10600
C430        C  0.51614472  0.16208150  0.46095764     0.04000
C431        C  0.49752312  0.17866946  0.47850144    -0.10000
H432        H  0.46377950  0.12403632  0.51593785     0.09600
H433        H  0.53024679  0.11891269  0.44909378     0.07200
H434        H  0.49893083  0.20222176  0.47716207     0.07000
C435        C  0.51223218  0.84152840  0.50696300     0.04100
C436        C  0.51378792  0.87238519  0.50608981    -0.12100
C437        C  0.49481541  0.88895471  0.48811833     0.01600
C438        C  0.47465458  0.87414270  0.47069307    -0.10600
C439        C  0.47269697  0.84367820  0.47202264     0.04000
C440        C  0.49120565  0.82766318  0.49016541    -0.10000
H441        H  0.52965321  0.88353894  0.51917321     0.09600
H442        H  0.46003389  0.88619802  0.45649112     0.07200
H443        H  0.48946162  0.80404810  0.49066963     0.07000
Zn444      Zn  0.30281005  0.63839206  0.30451349     1.49700
Zn445      Zn  0.30140182  0.69176831  0.35460403     1.49400
Zn446      Zn  0.35418414  0.69004586  0.30304227     1.49100
Zn447      Zn  0.29006550  0.70235939  0.29160665     1.49500
O448        O  0.31337026  0.67941758  0.31463387    -1.83200
O449        O  0.28775935  0.61946681  0.34182395    -0.73800
O450        O  0.33776731  0.70744779  0.37377182    -0.73700
O451        O  0.37451351  0.65273707  0.28841521    -0.73200
O452        O  0.28458625  0.65590459  0.37404011    -0.73800
O453        O  0.33942725  0.61890500  0.28778136    -0.73400
O454        O  0.37214367  0.70804033  0.33879895    -0.74000
O455        O  0.31125915  0.72701356  0.26668844    -0.73400
O456        O  0.26879254  0.72468808  0.35881731    -0.74200
O457        O  0.35873786  0.72189850  0.26978724    -0.73600
O458        O  0.26413868  0.72757897  0.31169322    -0.74000
O459        O  0.26563057  0.68085240  0.26729521    -0.73900
O460        O  0.26961460  0.63342941  0.27312813    -0.73700
C461        C  0.28013908  0.62948758  0.36662449     0.78100
C462        C  0.36323048  0.71415308  0.36442007     0.78500
C463        C  0.36552134  0.62712960  0.28215210     0.77500
C464        C  0.33644462  0.73415753  0.25851012     0.77900
C465        C  0.25647573  0.73575481  0.33659675     0.79000
C466        C  0.25785229  0.65550420  0.26074210     0.78100
C467        C  0.16937515  0.47986154  0.52749903     0.04100
C468        C  0.13866067  0.47868726  0.53031581    -0.12100
C469        C  0.12065602  0.49634332  0.51245919     0.01600
C470        C  0.13354868  0.51493870  0.49168330    -0.10600
C471        C  0.16398069  0.51540786  0.48821323     0.04000
C472        C  0.18159126  0.49796384  0.50605437    -0.10000
H473        H  0.12884230  0.46433129  0.54636961     0.09600
H474        H  0.11990508  0.52843343  0.47775938     0.07200
H475        H  0.20506218  0.49839628  0.50291997     0.07000
C476        C  0.51967353  0.52225263  0.83384349     0.04100
C477        C  0.50145694  0.50272518  0.81963260    -0.12100
C478        C  0.48434338  0.48252799  0.83477730     0.01600
C479        C  0.48539911  0.48199180  0.86541494    -0.10600
C480        C  0.50353774  0.50148777  0.88068205     0.04000
C481        C  0.52068533  0.52158831  0.86449375    -0.10000
H482        H  0.50063826  0.50318947  0.79615342     0.09600
H483        H  0.47218394  0.46650661  0.87739413     0.07200
H484        H  0.53470704  0.53658917  0.87573974     0.07000
Zn485      Zn  0.34735782  0.33027505  0.66404796     1.49700
Zn486      Zn  0.32777562  0.26330762  0.68022377     1.49400
Zn487      Zn  0.33215649  0.30810001  0.73007003     1.49100
Zn488      Zn  0.28176147  0.31312528  0.68426194     1.49500
O489        O  0.32284691  0.30435490  0.68918490    -1.83200
O490        O  0.37373446  0.30319391  0.63777613    -0.73800
O491        O  0.33608606  0.23897792  0.71542684    -0.73700
O492        O  0.36124592  0.33857685  0.73481079    -0.73200
O493        O  0.35934854  0.25879330  0.65192886    -0.73800
O494        O  0.37276826  0.35676013  0.69119309    -0.73400
O495        O  0.34630608  0.27088096  0.74967589    -0.74000
O496        O  0.26252475  0.32861268  0.72001235    -0.73400
O497        O  0.29202997  0.24376812  0.66563566    -0.74200
O498        O  0.29664200  0.31991947  0.75305183    -0.73600
O499        O  0.25863898  0.27743375  0.67604781    -0.74000
O500        O  0.27615911  0.34069598  0.65218834    -0.73900
O501        O  0.31984193  0.35636123  0.63770483    -0.73700
C502        C  0.37541308  0.27519263  0.63638453     0.78100
C503        C  0.34307628  0.24474282  0.74131499     0.78500
C504        C  0.37523193  0.35646583  0.71896285     0.77500
C505        C  0.27068226  0.32714068  0.74625820     0.77900
C506        C  0.26560282  0.25148389  0.66921776     0.79000
C507        C  0.29187955  0.35655675  0.63580539     0.78100
Zn508      Zn  0.65813073  0.66825981  0.65475759     1.49700
Zn509      Zn  0.72358036  0.69029697  0.67053851     1.49400
Zn510      Zn  0.67331577  0.73632527  0.67137808     1.49100
Zn511      Zn  0.67503779  0.68984963  0.71974547     1.49500
O512        O  0.68205778  0.69550147  0.67857895    -1.83200
O513        O  0.68681617  0.64007323  0.63152396    -0.73800
O514        O  0.74399142  0.72636238  0.65600826    -0.73700
O515        O  0.64515206  0.73893711  0.64042410    -0.73200
O516        O  0.72980633  0.65947820  0.64232651    -0.73800
O517        O  0.63238274  0.69430237  0.62627050    -0.73400
O518        O  0.70847442  0.75921033  0.66046427    -0.74000
O519        O  0.66336563  0.72631274  0.74106453    -0.73400
O520        O  0.74528953  0.67853824  0.70646382    -0.74200
O521        O  0.65902404  0.75904066  0.70571521    -0.73600
O522        O  0.71060883  0.67598620  0.74024228    -0.74000
O523        O  0.64504264  0.66086273  0.72601300    -0.73900
O524        O  0.63157783  0.64336007  0.68319984    -0.73700
C525        C  0.71479444  0.64074793  0.62912314     0.78100
C526        C  0.73501210  0.75265622  0.65578406     0.78500
C527        C  0.63056233  0.72232232  0.62425568     0.77500
C528        C  0.65867587  0.75231214  0.73244367     0.77900
C529        C  0.73720518  0.67414107  0.73255307     0.79000
C530        C  0.62973320  0.64382733  0.71103494     0.78100
C531        C  0.33364181  0.01574749  0.50893943     0.04100
C532        C  0.36437303  0.01798940  0.50721749    -0.12100
C533        C  0.38065197  0.00176656  0.48664347     0.01600
C534        C  0.36550324  0.98365092  0.46720929    -0.10600
C535        C  0.33499251  0.98098131  0.46912345     0.04000
C536        C  0.31945435  0.99685960  0.49001389    -0.10000
H537        H  0.37577472  0.03193292  0.52209772     0.09600
H538        H  0.37739544  0.97087042  0.45128271     0.07200
H539        H  0.29593005  0.99458179  0.49129048     0.07000
C540        C  0.65571601  0.97703778  0.49922111     0.04100
C541        C  0.67121128  0.99522973  0.48017238    -0.12100
C542        C  0.65688582  0.01726365  0.46432340     0.01600
C543        C  0.62626676  0.01990077  0.46624736    -0.10600
C544        C  0.61000536  0.00068617  0.48413420     0.04000
C545        C  0.62520187  0.97986674  0.50126672    -0.10000
H546        H  0.69481785  0.99336154  0.47901867     0.09600
H547        H  0.61519741  0.03658358  0.45351721     0.07200
H548        H  0.61337734  0.96556099  0.51595358     0.07000
C549        C  0.02269481  0.33301741  0.52741103     0.04100
C550        C  0.02248257  0.36363616  0.53143795    -0.12100
C551        C  0.00468346  0.38196718  0.51394820     0.01600
C552        C  0.98647258  0.36936437  0.49305330    -0.10600
C553        C  0.98666666  0.33900583  0.48893929     0.04000
C554        C  0.00483218  0.32126382  0.50591593    -0.10000
H555        H  0.03643823  0.37319523  0.54763532     0.09600
H556        H  0.97276156  0.38321356  0.47954283     0.07200
H557        H  0.00405849  0.29786377  0.50286764     0.07000
C558        C  0.01848508  0.99075942  0.15946907     0.04100
C559        C  0.01600576  0.98626904  0.12937709    -0.12100
C560        C  0.99901674  0.00554350  0.11234247     0.01600
C561        C  0.98338690  0.02830661  0.12570684    -0.10600
C562        C  0.98583652  0.03272113  0.15561444     0.04000
C563        C  0.00404820  0.01454522  0.17216812    -0.10000
H564        H  0.02756041  0.96824108  0.11924284     0.09600
H565        H  0.96945670  0.04260157  0.11287059     0.07200
H566        H  0.00546726  0.01780957  0.19540387     0.07000
C567        C  0.98591573  0.65737547  0.53256599     0.04100
C568        C  0.00173792  0.67217679  0.51095001    -0.12100
C569        C  0.02114115  0.65721919  0.49267928     0.01600
C570        C  0.02377661  0.62659844  0.49522821    -0.10600
C571        C  0.00701977  0.61114349  0.51600688     0.04000
C572        C  0.98865846  0.62680222  0.53516700    -0.10000
H573        H  0.99940046  0.69569988  0.50873458     0.09600
H574        H  0.03813270  0.61478771  0.48057624     0.07200
H575        H  0.97565574  0.61515649  0.55115350     0.07000
Zn576      Zn  0.18658491  0.85333302  0.29933902     1.49700
Zn577      Zn  0.13454740  0.80152415  0.30295106     1.49400
Zn578      Zn  0.19931068  0.78971312  0.28984823     1.49100
Zn579      Zn  0.18795466  0.80274526  0.35294949     1.49500
O580        O  0.17578601  0.81295748  0.31241551    -1.83200
O581        O  0.14886534  0.87330776  0.28646954    -0.73800
O582        O  0.13009324  0.76837591  0.27131501    -0.73700
O583        O  0.22454315  0.81033506  0.26423349    -0.73200
O584        O  0.11460156  0.83850485  0.28670283    -0.73800
O585        O  0.21794367  0.85772619  0.26549236    -0.73400
O586        O  0.17762709  0.76483818  0.26628620    -0.74000
O587        O  0.22165516  0.77102399  0.35792624    -0.73400
O588        O  0.11590462  0.78562200  0.34077805    -0.74200
O589        O  0.22468092  0.76469679  0.31096429    -0.73600
O590        O  0.15218714  0.78559243  0.37323057    -0.74000
O591        O  0.20344315  0.84030780  0.37064173    -0.73900
O592        O  0.20523230  0.87256964  0.33376914    -0.73700
C593        C  0.12289224  0.86468653  0.28133832     0.78100
C594        C  0.15246916  0.75674780  0.25939331     0.78500
C595        C  0.23120740  0.83548288  0.25530357     0.77500
C596        C  0.23306427  0.75822779  0.33616193     0.77900
C597        C  0.12601745  0.77945670  0.36601333     0.79000
C598        C  0.21078451  0.86512183  0.35992729     0.78100
Zn599      Zn  0.81356417  0.15290993  0.30593066     1.49700
Zn600      Zn  0.86303791  0.20376394  0.30850608     1.49400
Zn601      Zn  0.80244612  0.21490520  0.29176053     1.49100
Zn602      Zn  0.80886729  0.20370838  0.35505983     1.49500
O603        O  0.82343990  0.19192667  0.31763263    -1.83200
O604        O  0.85002698  0.13395311  0.29014267    -0.73800
O605        O  0.86294345  0.23841249  0.27928378    -0.73700
O606        O  0.76590657  0.19683722  0.28031745    -0.73200
O607        O  0.88379595  0.16912180  0.29033335    -0.73800
O608        O  0.78438503  0.15288651  0.27214616    -0.73400
O609        O  0.82534526  0.22070196  0.25616988    -0.74000
O610        O  0.77865513  0.23681877  0.35144867    -0.73400
O611        O  0.88116991  0.21786794  0.34559657    -0.74200
O612        O  0.79236463  0.25327162  0.30821997    -0.73600
O613        O  0.84354374  0.22045733  0.37692854    -0.74000
O614        O  0.78848974  0.16821702  0.37327664    -0.73900
O615        O  0.79466889  0.13260553  0.34059488    -0.73700
C616        C  0.87544625  0.14342037  0.28382017     0.78100
C617        C  0.84496870  0.23976798  0.25832903     0.78500
C618        C  0.76549471  0.17279571  0.26706318     0.77500
C619        C  0.77727577  0.25593514  0.33122821     0.77900
C620        C  0.87030175  0.22502264  0.37017505     0.79000
C621        C  0.78455635  0.14196128  0.36479347     0.78100
C622        C  0.00710377  0.01816288  0.84009393     0.04100
C623        C  0.00844476  0.01861787  0.87070104    -0.12100
C624        C  0.98672639  0.00478248  0.88759313     0.01600
C625        C  0.96390935  0.99008876  0.87378158    -0.10600
C626        C  0.96277298  0.98932605  0.84342127     0.04000
C627        C  0.98405835  0.00356486  0.82687927    -0.10000
H628        H  0.02612580  0.02964210  0.88144227     0.09600
H629        H  0.94778827  0.97839505  0.88657655     0.07200
H630        H  0.98318670  0.00220948  0.80341352     0.07000
Zn631      Zn  0.79189629  0.80019045  0.70076882     1.49700
Zn632      Zn  0.85119927  0.81702424  0.69355931     1.49400
Zn633      Zn  0.80627561  0.81329500  0.63946828     1.49100
Zn634      Zn  0.79777473  0.86378571  0.68887170     1.49500
O635        O  0.81333152  0.82609830  0.67849976    -1.83200
O636        O  0.81461215  0.76413768  0.70950108    -0.73800
O637        O  0.87396406  0.79477297  0.66240731    -0.73700
O638        O  0.77683396  0.77935040  0.63920224    -0.73200
O639        O  0.84826440  0.79096795  0.72974269    -0.73800
O640        O  0.75574913  0.79012426  0.68106876    -0.73400
O641        O  0.84446271  0.79659825  0.62380118    -0.74000
O642        O  0.77973389  0.88098202  0.65204623    -0.73400
O643        O  0.86833913  0.85458751  0.70695384    -0.74200
O644        O  0.78812454  0.84791665  0.61720270    -0.73600
O645        O  0.83119866  0.88686040  0.70644494    -0.74000
O646        O  0.76608434  0.86029346  0.72068498    -0.73900
O647        O  0.78057780  0.81740713  0.73806584    -0.73700
C648        C  0.83298770  0.76794818  0.72948732     0.78100
C649        C  0.86824271  0.78847521  0.63606110     0.78500
C650        C  0.75637909  0.77583573  0.65774011     0.77500
C651        C  0.77730209  0.87230864  0.62580038     0.77900
C652        C  0.85745135  0.87965508  0.71291272     0.79000
C653        C  0.76482863  0.84020628  0.74000443     0.78100
Zn654      Zn  0.18191894  0.21589265  0.68824254     1.49700
Zn655      Zn  0.16349226  0.15103859  0.66832126     1.49400
Zn656      Zn  0.23002170  0.16640996  0.68778945     1.49100
Zn657      Zn  0.18072425  0.16719568  0.73528454     1.49500
O658        O  0.18868735  0.17454013  0.69434740    -1.83200
O659        O  0.14869045  0.22255247  0.66266204    -0.73800
O660        O  0.19046741  0.12621730  0.64046032    -0.73700
O661        O  0.25115597  0.20275570  0.67563151    -0.73200
O662        O  0.13589330  0.17956571  0.64459000    -0.73800
O663        O  0.21658483  0.23691234  0.67246408    -0.73400
O664        O  0.23466113  0.13802916  0.65643122    -0.74000
O665        O  0.21691807  0.15727171  0.75683588    -0.73400
O666        O  0.13854580  0.12307558  0.69455711    -0.74200
O667        O  0.25168137  0.15202252  0.72355885    -0.73600
O668        O  0.15343409  0.13457528  0.73907915    -0.74000
O669        O  0.16672475  0.20209685  0.75808947    -0.73900
O670        O  0.17424433  0.23671302  0.72513219    -0.73700
C671        C  0.13276975  0.20742563  0.64625821     0.78100
C672        C  0.21843586  0.12402055  0.63931694     0.78500
C673        C  0.24318774  0.22904392  0.67097483     0.77500
C674        C  0.24329687  0.15227066  0.74990771     0.77900
C675        C  0.13807858  0.11932270  0.72219517     0.79000
C676        C  0.16901551  0.22887333  0.75108314     0.78100
C677        C  0.04916431  0.04869251  0.78334331     0.30700
C678        C  0.05459442  0.05917216  0.75501697    -0.35600
C679        C  0.08199011  0.07200678  0.75022433     0.16700
C680        C  0.10245805  0.07410223  0.77193391     0.22500
C681        C  0.09720448  0.06325230  0.80002087    -0.33800
C682        C  0.06980142  0.05077391  0.80484485     0.16600
O683        O  0.02464857  0.03714899  0.79297312    -0.25800
C684        C  0.02949209  0.03190717  0.82108178     0.06400
C685        C  0.05737748  0.03996105  0.82962709    -0.30700
O686        O  0.12523538  0.08946721  0.76390537    -0.22500
C687        C  0.11966839  0.09732236  0.73661850    -0.02500
C688        C  0.09311294  0.08682285  0.72669237    -0.16900
H689        H  0.03822100  0.05832169  0.73822424     0.21100
H690        H  0.11294908  0.06555007  0.81724952     0.19400
H691        H  0.06718105  0.03811820  0.85086601     0.19400
H692        H  0.08252936  0.09149905  0.70622405     0.15200
C693        C  0.88500098  0.93142391  0.76088452     0.30700
C694        C  0.88421561  0.95549561  0.77969821    -0.35600
C695        C  0.90807005  0.95798362  0.79858927     0.16700
C696        C  0.93092123  0.93809488  0.79886716     0.22500
C697        C  0.93169768  0.91421308  0.78016028    -0.33800
C698        C  0.90813783  0.91191213  0.76123292     0.16600
O699        O  0.86456953  0.92385561  0.74230831    -0.25800
C700        C  0.87510447  0.89940498  0.73049052     0.06400
C701        C  0.90221212  0.89117258  0.74137959    -0.30700
O702        O  0.95193997  0.94552460  0.81654232    -0.22500
C703        C  0.94247654  0.97033352  0.82815497    -0.02500
C704        C  0.91531541  0.97930016  0.81777890    -0.16900
H705        H  0.86641818  0.97118994  0.77952299     0.21100
H706        H  0.94967867  0.89872469  0.78007020     0.19400
H707        H  0.91481108  0.87161212  0.73677198     0.19400
H708        H  0.90381710  0.99959669  0.82199668     0.15200
C709        C  0.09816289  0.73257218  0.42016031     0.30700
C710        C  0.10011470  0.71177751  0.44273333    -0.35600
C711        C  0.07389085  0.69836076  0.45120173     0.16700
C712        C  0.04739538  0.70545545  0.43880289     0.22500
C713        C  0.04547464  0.72607155  0.41599807    -0.33800
C714        C  0.07184653  0.73906210  0.40710111     0.16600
O715        O  0.12016581  0.74689412  0.40826055    -0.25800
C716        C  0.10800525  0.76267026  0.38702806     0.06400
C717        C  0.07791706  0.75858027  0.38522946    -0.30700
O718        O  0.02544823  0.69125824  0.45105271    -0.22500
C719        C  0.03812730  0.67426196  0.47106193    -0.02500
C720        C  0.06825397  0.67778411  0.47211842    -0.16900
H721        H  0.12073153  0.70624066  0.45281597     0.21100
H722        H  0.02487714  0.73149960  0.40581973     0.19400
H723        H  0.06289645  0.76798820  0.36962900     0.19400
H724        H  0.08351570  0.66770220  0.48706913     0.15200
C725        C  0.93507661  0.70746611  0.56048058     0.30700
C726        C  0.91449034  0.73020322  0.55849846    -0.35600
C727        C  0.90670222  0.74372061  0.58458094     0.16700
C728        C  0.91840592  0.73560770  0.61097736     0.22500
C729        C  0.93882764  0.71243103  0.61305631    -0.33800
C730        C  0.94650355  0.69865582  0.58680982     0.16600
O731        O  0.94654320  0.69323159  0.53842300    -0.25800
C732        C  0.96527356  0.67451504  0.55054453     0.06400
C733        C  0.96613473  0.67672435  0.58070705    -0.30700
O734        O  0.90755824  0.75126814  0.63259899    -0.22500
C735        C  0.88864387  0.76951096  0.61975053    -0.02500
C736        C  0.88723270  0.76566132  0.58991776    -0.16900
H737        H  0.90538582  0.73710286  0.53791763     0.21100
H738        H  0.94813733  0.70571693  0.63360411     0.19400
H739        H  0.98041451  0.66521996  0.59562786     0.19400
H740        H  0.87318996  0.77681292  0.57451864     0.15200
C741        C  0.95615958  0.08505326  0.20188144     0.30700
C742        C  0.95687031  0.10644744  0.22348489    -0.35600
C743        C  0.93063622  0.11119137  0.23862932     0.16700
C744        C  0.90554424  0.09578619  0.23301581     0.22500
C745        C  0.90466027  0.07485046  0.21102653    -0.33800
C746        C  0.93077099  0.07036988  0.19565336     0.16600
O747        O  0.97877605  0.07506442  0.18706452    -0.25800
C748        C  0.96753214  0.05429380  0.17062170     0.06400
C749        C  0.93774394  0.05053469  0.17487521    -0.30700
O750        O  0.88345631  0.10391163  0.24955870    -0.22500
C751        C  0.89442180  0.12495097  0.26585724    -0.02500
C752        C  0.92370693  0.13046873  0.26000905    -0.16900
H753        H  0.97660474  0.11815019  0.22849771     0.21100
H754        H  0.88507915  0.06271539  0.20643083     0.19400
H755        H  0.92395073  0.03378121  0.16599044     0.19400
H756        H  0.93745567  0.14704103  0.26927562     0.15200
C757        C  0.07278282  0.90055094  0.23584759     0.30700
C758        C  0.05335432  0.90260210  0.21240857    -0.35600
C759        C  0.04810695  0.93082181  0.20130373     0.16700
C760        C  0.06038414  0.95544162  0.21305621     0.22500
C761        C  0.07981671  0.95341649  0.23645873    -0.33800
C762        C  0.08568864  0.92512334  0.24703846     0.16600
O763        O  0.08275673  0.87615493  0.24785387    -0.25800
C764        C  0.10255397  0.88515207  0.26677994     0.06400
C765        C  0.10525141  0.91543332  0.26720070    -0.30700
O766        O  0.05213365  0.97965323  0.19957289    -0.22500
C767        C  0.03488701  0.97039769  0.17843838    -0.02500
C768        C  0.03160759  0.94020095  0.17843930    -0.16900
H769        H  0.04375961  0.88343588  0.20287822     0.21100
H770        H  0.09024708  0.97249358  0.24527538     0.19400
H771        H  0.12056397  0.92828307  0.27940402     0.19400
H772        H  0.01824809  0.92722671  0.16426724     0.15200
C773        C  0.08703950  0.24051776  0.59401906     0.30700
C774        C  0.07422599  0.24500338  0.56668543    -0.35600
C775        C  0.06202501  0.27292183  0.56153427     0.16700
C776        C  0.06225525  0.29497946  0.58173849     0.22500
C777        C  0.07493783  0.29049212  0.60903619    -0.33800
C778        C  0.08709401  0.26265265  0.61418298     0.16600
O779        O  0.10155757  0.21688384  0.60293933    -0.25800
C780        C  0.11092872  0.22412965  0.62921720     0.06400
C781        C  0.10231581  0.25224504  0.63720512    -0.30700
O782        O  0.04942535  0.31928882  0.57235881    -0.22500
C783        C  0.04064451  0.31277735  0.54569897    -0.02500
C784        C  0.04825971  0.28420578  0.53787102    -0.16900
H785        H  0.07417911  0.22811642  0.55039080     0.21100
H786        H  0.07562484  0.30762490  0.62505530     0.19400
H787        H  0.10804620  0.26401935  0.65660925     0.19400
H788        H  0.04415541  0.27304312  0.51772842     0.15200
C789        C  0.95531548  0.29235135  0.43831463     0.30700
C790        C  0.95462615  0.26800400  0.42004253    -0.35600
C791        C  0.92701541  0.26002347  0.41003813     0.16700
C792        C  0.90175587  0.27476082  0.41776060     0.22500
C793        C  0.90252976  0.29953397  0.43558641    -0.33800
C794        C  0.93025126  0.30777486  0.44531706     0.16600
O795        O  0.97849384  0.30225279  0.45165859    -0.25800
C796        C  0.96840138  0.32471465  0.46703806     0.06400
C797        C  0.93851360  0.32938100  0.46376468    -0.30700
O798        O  0.87830005  0.26336131  0.40600038    -0.22500
C799        C  0.88872277  0.24121089  0.39036093    -0.02500
C800        C  0.91892503  0.23823233  0.39188916    -0.16900
H801        H  0.97420138  0.25589915  0.41435938     0.21100
H802        H  0.88290411  0.31137224  0.44162680     0.19400
H803        H  0.92466735  0.34496251  0.47496023     0.19400
H804        H  0.93287576  0.22271716  0.38071979     0.15200
C805        C  0.69256778  0.94222206  0.55646986     0.30700
C806        C  0.70233088  0.93911911  0.58514544    -0.35600
C807        C  0.72557605  0.91942567  0.58959067     0.16700
C808        C  0.73804712  0.90332054  0.56749942     0.22500
C809        C  0.72846373  0.90663847  0.53869056    -0.33800
C810        C  0.70551048  0.92678190  0.53414963     0.16600
O811        O  0.67214787  0.96057475  0.54730932    -0.25800
C812        C  0.67207224  0.95708440  0.51868112     0.06400
C813        C  0.69245717  0.93640025  0.50924251    -0.30700
O814        O  0.75864450  0.88518782  0.57693323    -0.22500
C815        C  0.75969149  0.89015200  0.60538611    -0.02500
C816        C  0.73969282  0.91137939  0.61434712    -0.16900
H817        H  0.69270509  0.95148791  0.60273566     0.21100
H818        H  0.73833814  0.89454719  0.52104303     0.19400
H819        H  0.69768550  0.93031327  0.48715793     0.19400
H820        H  0.73524489  0.91878109  0.63619098     0.15200
C821        C  0.71014021  0.05266369  0.42200382     0.30700
C822        C  0.73581793  0.05450562  0.40532491    -0.35600
C823        C  0.74519772  0.08276934  0.39819871     0.16700
C824        C  0.73058801  0.10761650  0.40720012     0.22500
C825        C  0.70455636  0.10576407  0.42353861    -0.33800
C826        C  0.69489021  0.07739015  0.43029586     0.16600
O827        O  0.69829079  0.02843382  0.43205466    -0.25800
C828        C  0.67472257  0.03753799  0.44655386     0.06400
C829        C  0.67137055  0.06785022  0.44606154    -0.30700
O830        O  0.74329992  0.13180190  0.39787047    -0.22500
C831        C  0.76618446  0.12226339  0.38248145    -0.02500
C832        C  0.76831008  0.09193547  0.38183441    -0.16900
H833        H  0.74771568  0.03522127  0.39846426     0.21100
H834        H  0.69268285  0.12504693  0.43044908     0.19400
H835        H  0.65495905  0.08092983  0.45703487     0.19400
H836        H  0.78418378  0.07861748  0.37038223     0.15200
C837        C  0.27049691  0.08916633  0.59554308     0.30700
C838        C  0.29897255  0.08400385  0.58537338    -0.35600
C839        C  0.30203674  0.06287947  0.56380720     0.16700
C840        C  0.27868944  0.04773709  0.55300150     0.22500
C841        C  0.25000153  0.05289577  0.56325648    -0.33800
C842        C  0.24685703  0.07429537  0.58487158     0.16600
O843        O  0.26307360  0.10810270  0.61555221    -0.25800
C844        C  0.23421024  0.10578537  0.61797134     0.06400
C845        C  0.22271457  0.08501021  0.59933283    -0.30700
O846        O  0.28674333  0.02919829  0.53259901    -0.22500
C847        C  0.31565927  0.03248514  0.53027739    -0.02500
C848        C  0.32626113  0.05328732  0.54933086    -0.16900
H849        H  0.31748089  0.09581349  0.59364816     0.21100
H850        H  0.23148169  0.04121698  0.55483601     0.19400
H851        H  0.20015765  0.07863899  0.59696579     0.19400
H852        H  0.34841917  0.06070063  0.55208437     0.15200
C853        C  0.28570720  0.93146015  0.43972674     0.30700
C854        C  0.26247799  0.91171966  0.44076677    -0.35600
C855        C  0.25112695  0.90340582  0.41397814     0.16700
C856        C  0.26165297  0.91405520  0.38788030     0.22500
C857        C  0.28528741  0.93353450  0.38679522    -0.33800
C858        C  0.29696358  0.94156717  0.41370442     0.16600
O859        O  0.29840812  0.94314325  0.46231408    -0.25800
C860        C  0.31854125  0.96062065  0.45084108     0.06400
C861        C  0.31885312  0.96042996  0.42059947    -0.30700
O862        O  0.24779579  0.90307884  0.36548817    -0.22500
C863        C  0.22836878  0.88500186  0.37745801    -0.02500
C864        C  0.22953988  0.88426244  0.40756456    -0.16900
H865        H  0.25374263  0.90355158  0.46109868     0.21100
H866        H  0.29391085  0.94183113  0.36646320     0.19400
H867        H  0.33198430  0.97356561  0.40598369     0.19400
H868        H  0.21688738  0.87096957  0.42245789     0.15200
C869        C  0.55443681  0.56125124  0.77719194     0.30700
C870        C  0.56162626  0.56753544  0.74804987    -0.35600
C871        C  0.58076886  0.59092119  0.74336237     0.16700
C872        C  0.59182620  0.60684743  0.76599000     0.22500
C873        C  0.58460854  0.60060718  0.79505836    -0.33800
C874        C  0.56558195  0.57721276  0.79970930     0.16600
O875        O  0.53720970  0.54024374  0.78641546    -0.25800
C876        C  0.53717372  0.54251415  0.81529173     0.06400
C877        C  0.55459126  0.56531865  0.82480004    -0.30700
O878        O  0.60972289  0.62730659  0.75703428    -0.22500
C879        C  0.61035039  0.62474206  0.72825284    -0.02500
C880        C  0.59266274  0.60238071  0.71834268    -0.16900
H881        H  0.55304800  0.55491357  0.73032795     0.21100
H882        H  0.59345460  0.61300456  0.81281092     0.19400
H883        H  0.55858124  0.57226404  0.84678824     0.19400
H884        H  0.58949534  0.59530574  0.69624821     0.15200
C885        C  0.44765581  0.44363244  0.78029314     0.30700
C886        C  0.43988379  0.43689299  0.75157945    -0.35600
C887        C  0.42168374  0.41260655  0.74817906     0.16700
C888        C  0.41195608  0.39636951  0.77159481     0.22500
C889        C  0.41963243  0.40315585  0.80020008    -0.33800
C890        C  0.43779574  0.42732619  0.80355869     0.16600
O891        O  0.46477867  0.46499445  0.78838951    -0.25800
C892        C  0.46603795  0.46252839  0.81727355     0.06400
C893        C  0.44947242  0.43933537  0.82790269    -0.30700
O894        O  0.39508632  0.37479662  0.76383553    -0.22500
C895        C  0.39377178  0.37690494  0.73502720    -0.02500
C896        C  0.40996589  0.40013233  0.72389873    -0.16900
H897        H  0.44758428  0.44962378  0.73323446     0.21100
H898        H  0.41199219  0.39039508  0.81854811     0.19400
H899        H  0.44670860  0.43199581  0.85010592     0.19400
H900        H  0.41239873  0.40700065  0.70149780     0.15200
C901        C  0.20604673  0.42507394  0.56759330     0.30700
C902        C  0.20995445  0.39736333  0.58011433    -0.35600
C903        C  0.23761807  0.39144203  0.59174215     0.16700
C904        C  0.26014825  0.41128031  0.59147862     0.22500
C905        C  0.25626700  0.43911150  0.57874562    -0.33800
C906        C  0.22848889  0.44500858  0.56688618     0.16600
O907        O  0.18201838  0.43491842  0.55497934    -0.25800
C908        C  0.18908108  0.46155273  0.54572931     0.06400
C909        C  0.21772231  0.46900689  0.55276397    -0.30700
O910        O  0.28358015  0.40140121  0.60547209    -0.22500
C911        C  0.27571708  0.37485707  0.61462384    -0.02500
C912        C  0.24748049  0.36767303  0.60642207    -0.16900
H913        H  0.19255741  0.38153518  0.58092148     0.21100
H914        H  0.27350685  0.45511833  0.57835307     0.19400
H915        H  0.22916637  0.48903011  0.54775776     0.19400
H916        H  0.23530464  0.34823055  0.61201600     0.15200
C917        C  0.20963796  0.54556041  0.43511350     0.30700
C918        C  0.23281340  0.54546267  0.41505742    -0.35600
C919        C  0.24250064  0.57294108  0.40570271     0.16700
C920        C  0.23042514  0.59873528  0.41567717     0.22500
C921        C  0.20679788  0.59882788  0.43526724    -0.33800
C922        C  0.19683436  0.57130901  0.44433491     0.16600
O923        O  0.19873913  0.52247271  0.44834403    -0.25800
C924        C  0.17823684  0.53344866  0.46580484     0.06400
C925        C  0.17586188  0.56372405  0.46409989    -0.30700
O926        O  0.24310557  0.62191168  0.40427359    -0.22500
C927        C  0.26334728  0.61082826  0.38654383    -0.02500
C928        C  0.26388873  0.58045502  0.38641478    -0.16900
H929        H  0.24289924  0.52537405  0.40764922     0.21100
H930        H  0.19709553  0.61892875  0.44311818     0.19400
H931        H  0.16228095  0.57806171  0.47710998     0.19400
H932        H  0.27762240  0.56609713  0.37358229     0.15200
C933        C  0.55115319  0.78491116  0.54254158     0.30700
C934        C  0.55833129  0.75571870  0.54985476    -0.35600
C935        C  0.58007915  0.75184257  0.57100690     0.16700
C936        C  0.59355404  0.77529915  0.58369142     0.22500
C937        C  0.58651158  0.80425549  0.57634291    -0.33800
C938        C  0.56488735  0.80806330  0.55541539     0.16600
O939        O  0.53114559  0.79370405  0.52390418    -0.25800
C940        C  0.53203298  0.82287285  0.52482534     0.06400
C941        C  0.55281411  0.83296033  0.54415221    -0.30700
O942        O  0.61265827  0.76727300  0.60323820    -0.22500
C943        C  0.61181650  0.73822270  0.60348716    -0.02500
C944        C  0.59188409  0.72713237  0.58373830    -0.16900
H945        H  0.54749965  0.73740376  0.53998940     0.21100
H946        H  0.59700533  0.82258845  0.58654864     0.19400
H947        H  0.55815168  0.85523510  0.54954988     0.19400
H948        H  0.58659325  0.70452891  0.57971674     0.15200
C949        C  0.41017970  0.76603027  0.39307501     0.30700
C950        C  0.43000122  0.78922098  0.39171291    -0.35600
C951        C  0.43529655  0.80344321  0.41794736     0.16700
C952        C  0.42236736  0.79505035  0.44381154     0.22500
C953        C  0.40211308  0.77223908  0.44507404    -0.33800
C954        C  0.39655256  0.75825181  0.41876120     0.16600
O955        O  0.40153985  0.75021047  0.37103675    -0.25800
C956        C  0.38195316  0.73218419  0.38265624     0.06400
C957        C  0.37788805  0.73623904  0.41230888    -0.30700
O958        O  0.43261163  0.80941583  0.46612826    -0.22500
C959        C  0.45180087  0.82771523  0.45431877    -0.02500
C960        C  0.45429889  0.82514437  0.42439470    -0.16900
H961        H  0.44068625  0.79556914  0.37167212     0.21100
H962        H  0.39178021  0.76559128  0.46520013     0.19400
H963        H  0.36262192  0.72536637  0.42669908     0.19400
H964        H  0.46961377  0.83591740  0.40997831     0.15200
C965        C  0.41972591  0.24879850  0.57934689     0.30700
C966        C  0.43408691  0.24887701  0.55228657    -0.35600
C967        C  0.44367636  0.22146374  0.54211104     0.16700
C968        C  0.43954830  0.19578345  0.55740009     0.22500
C969        C  0.42536133  0.19569310  0.58438540    -0.33800
C970        C  0.41583427  0.22297769  0.59452120     0.16600
O971        O  0.40735679  0.27151646  0.59245287    -0.25800
C972        C  0.39551604  0.25986568  0.61632998     0.06400
C973        C  0.40037736  0.22984396  0.61864237    -0.30700
O974        O  0.45047808  0.17272717  0.54399129    -0.22500
C975        C  0.46195387  0.18362917  0.51964593    -0.02500
C976        C  0.45807643  0.21393706  0.51734112    -0.16900
H977        H  0.43722773  0.26877232  0.53987254     0.21100
H978        H  0.42174665  0.17571310  0.59653381     0.19400
H979        H  0.39232224  0.21490289  0.63511281     0.19400
H980        H  0.46499382  0.22862452  0.50019110     0.15200
C981        C  0.55218614  0.21228796  0.41631914     0.30700
C982        C  0.55424696  0.23754346  0.39904542    -0.35600
C983        C  0.58243048  0.24839455  0.39456373     0.16700
C984        C  0.60699125  0.23545367  0.40639659     0.22500
C985        C  0.60497207  0.20984564  0.42338379    -0.33800
C986        C  0.57670694  0.19876395  0.42762752     0.16600
O987        O  0.52778290  0.19994863  0.42510294    -0.25800
C988        C  0.53664639  0.17776869  0.44177292     0.06400
C989        C  0.56691108  0.17580579  0.44402317    -0.30700
O990        O  0.63118369  0.24927790  0.39903439    -0.22500
C991        C  0.62192194  0.27124542  0.38217177    -0.02500
C992        C  0.59179121  0.27168504  0.37863139    -0.16900
H993        H  0.53513126  0.24824727  0.39007159     0.21100
H994        H  0.62403736  0.19942772  0.43277585     0.19400
H995        H  0.57959588  0.16120769  0.45769398     0.19400
H996        H  0.57880522  0.28643122  0.36539955     0.15200
C997        C  0.77068579  0.60268564  0.59349553     0.30700
C998        C  0.79968294  0.59874821  0.58415398    -0.35600
C999        C  0.80689559  0.57115724  0.57322714     0.16700
C1000       C  0.78679398  0.54902050  0.57136985     0.22500
C1001       C  0.75770054  0.55289201  0.58099403    -0.33800
C1002       C  0.75044426  0.58062787  0.59203434     0.16600
O1003       O  0.75990301  0.62650135  0.60525866    -0.25800
C1004       C  0.73222406  0.62010564  0.61146812     0.06400
C1005       C  0.72492054  0.59172393  0.60362727    -0.30700
O1006       O  0.79778977  0.52569407  0.55853777    -0.22500
C1007       C  0.82539028  0.53281981  0.55235400    -0.02500
C1008       C  0.83231596  0.56085642  0.56128988    -0.16900
H1009       H  0.81552784  0.61611804  0.58526818     0.21100
H1010       H  0.74179147  0.53561027  0.57962489     0.19400
H1011       H  0.70450809  0.58049904  0.60730914     0.19400
H1012       H  0.85242212  0.57264562  0.55767172     0.15200
C1013       C  0.77290417  0.40061863  0.42483226     0.30700
C1014       C  0.79832778  0.39948930  0.44172807    -0.35600
C1015       C  0.80882575  0.42640897  0.45136520     0.16700
C1016       C  0.79478366  0.45253916  0.44538021     0.22500
C1017       C  0.76954036  0.45373255  0.42819990    -0.33800
C1018       C  0.75941087  0.42685349  0.41804807     0.16600
O1019       O  0.76042729  0.37823824  0.41224182    -0.25800
C1020       C  0.73885049  0.39022358  0.39687575     0.06400
C1021       C  0.73715088  0.42046917  0.39964106    -0.30700
O1022       O  0.80716186  0.47480102  0.45824785    -0.22500
C1023       C  0.82983648  0.46295236  0.47218502    -0.02500
C1024       C  0.83209766  0.43288202  0.46849962    -0.16900
H1025       H  0.80932134  0.37906935  0.44673491     0.21100
H1026       H  0.75865569  0.47417453  0.42303510     0.19400
H1027       H  0.72264486  0.43559276  0.38856728     0.19400
H1028       H  0.84731717  0.41782236  0.47866736     0.15200
C1029       C  0.42988573  0.55231692  0.19824402     0.30700
C1030       C  0.40238299  0.55395049  0.21199378    -0.35600
C1031       C  0.39923889  0.57515317  0.23379013     0.16700
C1032       C  0.42152274  0.59362923  0.24140329     0.22500
C1033       C  0.44911976  0.59165750  0.22802374    -0.33800
C1034       C  0.45225983  0.57048447  0.20629557     0.16600
O1035       O  0.43796483  0.53367627  0.17780716    -0.25800
C1036       C  0.46583734  0.54019237  0.17256414     0.06400
C1037       C  0.47586358  0.56274987  0.18985079    -0.30700
O1038       O  0.41315522  0.61338145  0.26059355    -0.22500
C1039       C  0.38517728  0.60732041  0.26572915    -0.02500
C1040       C  0.37546264  0.58353634  0.24980980    -0.16900
H1041       H  0.38461170  0.53986993  0.20596097     0.21100
H1042       H  0.46678905  0.60597059  0.23380975     0.19400
H1043       H  0.49780685  0.57123050  0.19103440     0.19400
H1044       H  0.35351955  0.57505178  0.24863011     0.15200
C1045       C  0.61389194  0.42755336  0.23168417     0.30700
C1046       C  0.61306126  0.44370528  0.20552898    -0.35600
C1047       C  0.58511064  0.45130955  0.19524625     0.16700
C1048       C  0.55992368  0.44400483  0.21011647     0.22500
C1049       C  0.56073843  0.42770895  0.23597770    -0.33800
C1050       C  0.58851159  0.41968691  0.24591494     0.16600
O1051       O  0.63742369  0.41680646  0.24452763    -0.25800
C1052       C  0.62685588  0.40168483  0.26706050     0.06400
C1053       C  0.59656819  0.40266999  0.26890763    -0.30700
O1054       O  0.53624011  0.45445585  0.19765727    -0.22500
C1055       C  0.54608094  0.46827644  0.17409981    -0.02500
C1056       C  0.57639396  0.46693404  0.17129275    -0.16900
H1057       H  0.63276061  0.44961657  0.19387970     0.21100
H1058       H  0.54102093  0.42155139  0.24746938     0.19400
H1059       H  0.58252110  0.39145741  0.28426194     0.19400
H1060       H  0.58999038  0.47730641  0.15498128     0.15200
C1061       C  0.42417642  0.09702162  0.73418920     0.30700
C1062       C  0.44253568  0.09910877  0.70968758    -0.35600
C1063       C  0.44715586  0.07319166  0.69411952     0.16700
C1064       C  0.43508948  0.04691210  0.70253902     0.22500
C1065       C  0.41665396  0.04482858  0.72693250    -0.33800
C1066       C  0.41161555  0.07083702  0.74216063     0.16600
O1067       O  0.41520834  0.11891566  0.75057038    -0.25800
C1068       C  0.39650341  0.10668582  0.76920003     0.06400
C1069       C  0.39348717  0.07675200  0.76499567    -0.30700
O1070       O  0.44368586  0.02510271  0.68595114    -0.22500
C1071       C  0.46092718  0.03759804  0.66613760    -0.02500
C1072       C  0.46390285  0.06753074  0.67012720    -0.16900
H1073       H  0.45215839  0.11960091  0.70297264     0.21100
H1074       H  0.40675719  0.02440225  0.73344169     0.19400
H1075       H  0.37868849  0.06192758  0.77593127     0.19400
H1076       H  0.47796631  0.08244195  0.65836908     0.15200
C1077       C  0.58071768  0.90381667  0.72450439     0.30700
C1078       C  0.55699194  0.90321846  0.70535427    -0.35600
C1079       C  0.55314635  0.92807867  0.68768855     0.16700
C1080       C  0.57125557  0.95198324  0.68897045     0.22500
C1081       C  0.59508236  0.95249820  0.70796460    -0.33800
C1082       C  0.59898644  0.92760258  0.72552617     0.16600
O1083       O  0.58882842  0.88263983  0.74240738    -0.25800
C1084       C  0.61260747  0.89298568  0.75509814     0.06400
C1085       C  0.61991229  0.92090648  0.74543205    -0.30700
O1086       O  0.56234789  0.97372199  0.67218097    -0.22500
C1087       C  0.53854960  0.96343996  0.65953594    -0.02500
C1088       C  0.53171396  0.93518602  0.66840633    -0.16900
H1089       H  0.54245442  0.88474334  0.70441860     0.21100
H1090       H  0.60935103  0.97116146  0.70922947     0.19400
H1091       H  0.63859435  0.93385492  0.75133921     0.19400
H1092       H  0.51258381  0.92264814  0.66305880     0.15200
C1093       C  0.75101661  0.08693735  0.09670431     0.30700
C1094       C  0.75119126  0.06042915  0.08151308    -0.35600
C1095       C  0.77823071  0.05169883  0.06958357     0.16700
C1096       C  0.80336267  0.06780169  0.07242027     0.22500
C1097       C  0.80324790  0.09411316  0.08771054    -0.33800
C1098       C  0.77629471  0.10285600  0.09950640     0.16600
O1099       O  0.72830408  0.09941205  0.10978254    -0.25800
C1100       C  0.73938856  0.12358719  0.12108026     0.06400
C1101       C  0.76907859  0.12673550  0.11524100    -0.30700
O1102       O  0.82587879  0.05628908  0.05845831    -0.22500
C1103       C  0.81514159  0.03243291  0.04628938    -0.02500
C1104       C  0.78557878  0.02839617  0.05282348    -0.16900
H1105       H  0.73161478  0.04766757  0.07890749     0.21100
H1106       H  0.82274362  0.10707863  0.08995433     0.19400
H1107       H  0.78343719  0.14401410  0.12206073     0.19400
H1108       H  0.77119934  0.01129149  0.04571474     0.15200
C1109       C  0.75272459  0.91167149  0.91467179     0.30700
C1110       C  0.76310953  0.91385538  0.94306419    -0.35600
C1111       C  0.78510639  0.93435938  0.94740823     0.16700
C1112       C  0.79640046  0.95156199  0.92537583     0.22500
C1113       C  0.78580990  0.94952188  0.89685353    -0.33800
C1114       C  0.76350315  0.92906232  0.89252467     0.16600
O1115       O  0.73322857  0.89286639  0.90569554    -0.25800
C1116       C  0.73103007  0.89837152  0.87742533     0.06400
C1117       C  0.74926646  0.92082397  0.86797359    -0.30700
O1118       O  0.81643979  0.96980748  0.93477430    -0.22500
C1119       C  0.81779964  0.96407151  0.96314186    -0.02500
C1120       C  0.79875410  0.94230469  0.97212724    -0.16900
H1121       H  0.75469831  0.90038857  0.96055182     0.21100
H1122       H  0.79429661  0.96291227  0.87934463     0.19400
H1123       H  0.75281836  0.92862063  0.84601276     0.19400
H1124       H  0.79480577  0.93433356  0.99396317     0.15200
C1125       C  0.19922433  0.91529302  0.04043436     0.30700
C1126       C  0.22381209  0.89678178  0.04118091    -0.35600
C1127       C  0.23642353  0.89229122  0.06851253     0.16700
C1128       C  0.22573504  0.90532634  0.09334680     0.22500
C1129       C  0.20080178  0.92338644  0.09268298    -0.33800
C1130       C  0.18793264  0.92755808  0.06540487     0.16600
O1131       O  0.18578152  0.92470354  0.01691483    -0.25800
C1132       C  0.16515019  0.94271162  0.02694260     0.06400
C1133       C  0.16524047  0.94508937  0.05701343    -0.30700
O1134       O  0.24051505  0.89758143  0.11666146    -0.22500
C1135       C  0.26077702  0.87913029  0.10671108    -0.02500
C1136       C  0.25929475  0.87501886  0.07687513    -0.16900
H1137       H  0.23273878  0.88693588  0.02175283     0.21100
H1138       H  0.19214871  0.93359028  0.11204595     0.19400
H1139       H  0.15243040  0.95981461  0.07035310     0.19400
H1140       H  0.27220453  0.86032624  0.06359192     0.15200
C1141       C  0.20836689  0.03315851  0.92776364     0.30700
C1142       C  0.23354684  0.03313277  0.91010901    -0.35600
C1143       C  0.24434858  0.06069667  0.90204027     0.16700
C1144       C  0.23157112  0.08643190  0.91128950     0.22500
C1145       C  0.20613089  0.08644749  0.92849794    -0.33800
C1146       C  0.19498972  0.05893223  0.93602671     0.16600
O1147       O  0.19514458  0.00997099  0.93861551    -0.25800
C1148       C  0.17258840  0.02098579  0.95347503     0.06400
C1149       C  0.17134303  0.05136694  0.95252243    -0.30700
O1150       O  0.24539150  0.10970851  0.90152004    -0.22500
C1151       C  0.26714189  0.09888608  0.88545175    -0.02500
C1152       C  0.26744491  0.06846377  0.88474337    -0.16900
H1153       H  0.24398907  0.01304471  0.90319647     0.21100
H1154       H  0.19573045  0.10653040  0.93548914     0.19400
H1155       H  0.15611029  0.06574554  0.96356395     0.19400
H1156       H  0.28229397  0.05425015  0.87301229     0.15200
C1157       C  0.58756240  0.11017355  0.26662243     0.30700
C1158       C  0.57702619  0.10323408  0.29438963    -0.35600
C1159       C  0.55937878  0.07854965  0.29640868     0.16700
C1160       C  0.55233559  0.06192291  0.27270641     0.22500
C1161       C  0.56279551  0.06898394  0.24473598    -0.33800
C1162       C  0.58068058  0.09373024  0.24269080     0.16600
O1163       O  0.60590366  0.13120036  0.26044421    -0.25800
C1164       C  0.61099704  0.12851675  0.23215947     0.06400
C1165       C  0.59573405  0.10563792  0.21973487    -0.30700
O1166       O  0.53562672  0.03962841  0.27981612    -0.22500
C1167       C  0.53198660  0.04194761  0.30847576    -0.02500
C1168       C  0.54641376  0.06587652  0.31989384    -0.16900
H1169       H  0.58274684  0.11587688  0.31323638     0.21100
H1170       H  0.55775213  0.05584690  0.22603593     0.19400
H1171       H  0.59681890  0.09798356  0.19759560     0.19400
H1172       H  0.54709488  0.07328531  0.34209962     0.15200
C1173       C  0.43083310  0.94983765  0.27579432     0.30700
C1174       C  0.41083410  0.94933101  0.25279333    -0.35600
C1175       C  0.40203913  0.92156255  0.24374546     0.16700
C1176       C  0.41278229  0.89609513  0.25604855     0.22500
C1177       C  0.43253751  0.89661632  0.27924219    -0.33800
C1178       C  0.44075566  0.92437897  0.28877169     0.16600
O1179       O  0.44217976  0.97334004  0.28743705    -0.25800
C1180       C  0.45906662  0.96288064  0.30860433     0.06400
C1181       C  0.45898440  0.93253299  0.31054276    -0.30700
O1182       O  0.40127875  0.87256325  0.24463545    -0.22500
C1183       C  0.38259027  0.88298572  0.22501780    -0.02500
C1184       C  0.38203017  0.91338716  0.22355829    -0.16900
H1185       H  0.40247767  0.96918895  0.24289461     0.21100
H1186       H  0.44057334  0.87676873  0.28942080     0.19400
H1187       H  0.47141899  0.91858864  0.32506673     0.19400
H1188       H  0.36836461  0.92734136  0.21018116     0.15200
C1189       C  0.54996634  0.71365387  0.92484612     0.30700
C1190       C  0.54961408  0.73679462  0.90467090    -0.35600
C1191       C  0.57652942  0.75017452  0.89905563     0.16700
C1192       C  0.60204292  0.74164197  0.91259133     0.22500
C1193       C  0.60243308  0.71829997  0.93265441    -0.33800
C1194       C  0.57554768  0.70457052  0.93792591     0.16600
O1195       O  0.52707341  0.69891493  0.93412300    -0.25800
C1196       C  0.53814364  0.67960309  0.95289471     0.06400
C1197       C  0.56822903  0.68203948  0.95611811    -0.30700
O1198       O  0.62487873  0.75653214  0.90320722    -0.22500
C1199       C  0.61386364  0.77473480  0.88328331    -0.02500
C1200       C  0.58386358  0.77171855  0.87985004    -0.16900
H1201       H  0.52974117  0.74380888  0.89401007     0.21100
H1202       H  0.62234104  0.71114258  0.94315776     0.19400
H1203       H  0.58226170  0.67017470  0.97099543     0.19400
H1204       H  0.56978342  0.78279258  0.86443422     0.15200
C1205       C  0.43265871  0.71017538  0.04204789     0.30700
C1206       C  0.41281684  0.73372891  0.04304723    -0.35600
C1207       C  0.40383247  0.74257640  0.07080453     0.16700
C1208       C  0.41412221  0.72952429  0.09587920     0.22500
C1209       C  0.43362739  0.70566342  0.09486501    -0.33800
C1210       C  0.44213724  0.69641128  0.06707074     0.16600
O1211       O  0.44460762  0.69899155  0.01846763    -0.25800
C1212       C  0.46147003  0.67731640  0.02840578     0.06400
C1213       C  0.46068246  0.67457192  0.05850337    -0.30700
O1214       O  0.40263331  0.74115433  0.11948473    -0.22500
C1215       C  0.38447047  0.76168116  0.10941456    -0.02500
C1216       C  0.38419847  0.76345963  0.07926664    -0.16900
H1217       H  0.40488855  0.74436251  0.02353672     0.21100
H1218       H  0.44145610  0.69494736  0.11437103     0.19400
H1219       H  0.47309592  0.65964998  0.07207664     0.19400
H1220       H  0.37094394  0.77757305  0.06563360     0.15200
C1221       C  0.56500450  0.28402609  0.04872987     0.30700
C1222       C  0.57121607  0.25557213  0.05894414    -0.35600
C1223       C  0.59413223  0.25295677  0.07895365     0.16700
C1224       C  0.60972426  0.27681336  0.08807750     0.22500
C1225       C  0.60381013  0.30509062  0.07757302    -0.33800
C1226       C  0.58088073  0.30768111  0.05774974     0.16600
O1227       O  0.54358585  0.29172686  0.03120077    -0.25800
C1228       C  0.54560734  0.32074935  0.02892472     0.06400
C1229       C  0.56868180  0.33179273  0.04498101    -0.30700
O1230       O  0.62880155  0.26997477  0.10823718    -0.22500
C1231       C  0.62573876  0.24131680  0.11213185    -0.02500
C1232       C  0.60455406  0.22936490  0.09434421    -0.16900
H1233       H  0.55852101  0.23694012  0.05238796     0.21100
H1234       H  0.61567978  0.32390633  0.08507406     0.19400
H1235       H  0.57532318  0.35424365  0.04751834     0.19400
H1236       H  0.59701974  0.20702455  0.09385179     0.15200
C1237       C  0.42930496  0.29345421  0.94959602     0.30700
C1238       C  0.40369645  0.27654080  0.94972368    -0.35600
C1239       C  0.40088471  0.25647257  0.92687941     0.16700
C1240       C  0.42182948  0.25336286  0.90545300     0.22500
C1241       C  0.44735112  0.27015794  0.90536962    -0.33800
C1242       C  0.45010193  0.29019667  0.92805244     0.16600
O1243       O  0.43717959  0.31258455  0.96944222    -0.25800
C1244       C  0.46313918  0.32200222  0.96014928     0.06400
C1245       C  0.47226885  0.30862376  0.93463452    -0.30700
O1246       O  0.41434637  0.23439474  0.88546451    -0.22500
C1247       C  0.38825531  0.22488548  0.89408353    -0.02500
C1248       C  0.37879927  0.23784796  0.91985397    -0.16900
H1249       H  0.38718031  0.27882185  0.96644946     0.21100
H1250       H  0.46388028  0.26785993  0.88865727     0.19400
H1251       H  0.49300453  0.31096352  0.92349916     0.19400
H1252       H  0.35805090  0.23515500  0.93088001     0.15200
C1253       C  0.07588286  0.76050709  0.10252929     0.30700
C1254       C  0.05286393  0.78101345  0.10315192    -0.35600
C1255       C  0.04924012  0.79816238  0.07800394     0.16700
C1256       C  0.06674785  0.79499456  0.05373312     0.22500
C1257       C  0.08984278  0.77459133  0.05314863    -0.33800
C1258       C  0.09366408  0.75767822  0.07841482     0.16600
O1259       O  0.08406072  0.74324488  0.12413911    -0.25800
C1260       C  0.10742825  0.72913962  0.11379556     0.06400
C1261       C  0.11436221  0.73724129  0.08538830    -0.30700
O1262       O  0.05814132  0.81173649  0.03191889    -0.22500
C1263       C  0.03526423  0.82639020  0.04254570    -0.02500
C1264       C  0.02865650  0.81876167  0.07109621    -0.16900
H1265       H  0.03884412  0.78349968  0.12196109     0.21100
H1266       H  0.10376359  0.77199925  0.03428028     0.19400
H1267       H  0.13284534  0.73024109  0.07236403     0.19400
H1268       H  0.01006568  0.82568763  0.08400431     0.15200
C1269       C  0.93068605  0.80870984  0.93401290     0.30700
C1270       C  0.91193803  0.80886895  0.91013991    -0.35600
C1271       C  0.90188262  0.78148840  0.90138765     0.16700
C1272       C  0.90950115  0.75557602  0.91503693     0.22500
C1273       C  0.92817807  0.75546286  0.93904844    -0.33800
C1274       C  0.93831816  0.78290829  0.94777590     0.16600
O1275       O  0.94305850  0.83175848  0.94562851    -0.25800
C1276       C  0.95901770  0.82064354  0.96717120     0.06400
C1277       C  0.95659578  0.79026512  0.96952430    -0.30700
O1278       O  0.89718159  0.73254257  0.90312024    -0.22500
C1279       C  0.88151017  0.74406124  0.88159016    -0.02500
C1280       C  0.88372670  0.77435229  0.87959765    -0.16900
H1281       H  0.90569582  0.82889208  0.89909484     0.21100
H1282       H  0.93442811  0.73545019  0.95010052     0.19400
H1283       H  0.96664791  0.77539235  0.98489482     0.19400
H1284       H  0.87313205  0.78908916  0.86439389     0.15200
C1285       C  0.90864699  0.60194754  0.73456603     0.30700
C1286       C  0.91540913  0.59246757  0.70647718    -0.35600
C1287       C  0.93886420  0.57291629  0.70407347     0.16700
C1288       C  0.95466444  0.56340759  0.72772461     0.22500
C1289       C  0.94799394  0.57309681  0.75599737    -0.33800
C1290       C  0.92426994  0.59267138  0.75846708     0.16600
O1291       O  0.88726035  0.61984557  0.74137168    -0.25800
C1292       C  0.88875851  0.62232327  0.77005519     0.06400
C1293       C  0.91148411  0.60587677  0.78211213    -0.30700
O1294       O  0.97505696  0.54429346  0.72044353    -0.22500
C1295       C  0.97234090  0.54149514  0.69174572    -0.02500
C1296       C  0.95009082  0.55899895  0.68042894    -0.16900
H1297       H  0.90292907  0.59959647  0.68780130     0.21100
H1298       H  0.96014851  0.56555682  0.77472586     0.19400
H1299       H  0.91767496  0.60402287  0.80468025     0.19400
H1300       H  0.94256932  0.56071938  0.65827252     0.15200
C1301       C  0.10043988  0.39638678  0.74244731     0.30700
C1302       C  0.09119861  0.40148424  0.71389122    -0.35600
C1303       C  0.07331288  0.42602356  0.70958198     0.16700
C1304       C  0.06507684  0.44422009  0.73191017     0.22500
C1305       C  0.07432525  0.43908733  0.76060475    -0.33800
C1306       C  0.09228149  0.41442772  0.76497175     0.16600
O1307       O  0.11783902  0.37512287  0.75088166    -0.25800
C1308       C  0.12101941  0.37921900  0.77923617     0.06400
C1309       C  0.10549483  0.40338843  0.78942967    -0.30700
O1310       O  0.04802479  0.46572229  0.72297278    -0.22500
C1311       C  0.04523586  0.46137411  0.69451734    -0.02500
C1312       C  0.06066562  0.43687115  0.68499123    -0.16900
H1313       H  0.09767247  0.38733111  0.69622767     0.21100
H1314       H  0.06799544  0.45335013  0.77822442     0.19400
H1315       H  0.10475652  0.41197946  0.81123329     0.19400
H1316       H  0.06204806  0.42793669  0.66336186     0.15200
C1317       C  0.95184365  0.21014905  0.07944364     0.30700
C1318       C  0.95392005  0.23347955  0.09896022    -0.35600
C1319       C  0.92748668  0.24699747  0.10696418     0.16700
C1320       C  0.90094510  0.23831883  0.09615122     0.22500
C1321       C  0.89882545  0.21470747  0.07698743    -0.33800
C1322       C  0.92521324  0.20089837  0.06933112     0.16600
O1323       O  0.97390135  0.19585021  0.06757378    -0.25800
C1324       C  0.96132765  0.17670968  0.05007682     0.06400
C1325       C  0.93099136  0.17870376  0.05040669    -0.30700
O1326       O  0.87897972  0.25383279  0.10658007    -0.22500
C1327       C  0.89145419  0.27257148  0.12455320    -0.02500
C1328       C  0.92167395  0.26930704  0.12575473    -0.16900
H1329       H  0.97471305  0.24076749  0.10706634     0.21100
H1330       H  0.87806691  0.20770011  0.06855176     0.19400
H1331       H  0.91568660  0.16716859  0.03697155     0.19400
H1332       H  0.93692906  0.28100819  0.13910235     0.15200
C1333       C  0.05548496  0.21776578  0.95481090     0.30700
C1334       C  0.06119173  0.24651593  0.94524315    -0.35600
C1335       C  0.08661198  0.25025952  0.92836814     0.16700
C1336       C  0.10487166  0.22713261  0.92161556     0.22500
C1337       C  0.09919303  0.19856266  0.93113521    -0.33800
C1338       C  0.07386261  0.19484939  0.94778529     0.16600
O1339       O  0.03311697  0.20920883  0.97080334    -0.25800
C1340       C  0.03709287  0.18040588  0.97391483     0.06400
C1341       C  0.06218663  0.17029821  0.95992922    -0.30700
O1342       O  0.12674117  0.23493045  0.90485811    -0.22500
C1343       C  0.12286183  0.26349326  0.90061726    -0.02500
C1344       C  0.09817959  0.27445554  0.91483540    -0.16900
H1345       H  0.04672208  0.26459307  0.95040883     0.21100
H1346       H  0.11341659  0.18039955  0.92559552     0.19400
H1347       H  0.07092286  0.14826605  0.95921381     0.19400
H1348       H  0.08949222  0.29652344  0.91435329     0.15200
C1349       C  0.04869635  0.56758338  0.30294315     0.30700
C1350       C  0.04723135  0.58615632  0.27856919    -0.35600
C1351       C  0.07380458  0.59193457  0.26443847     0.16700
C1352       C  0.09998535  0.57990439  0.27342558     0.22500
C1353       C  0.10148682  0.56150285  0.29800929    -0.33800
C1354       C  0.07493104  0.55613148  0.31248244     0.16600
O1355       O  0.02630536  0.55815164  0.31835807    -0.25800
C1356       C  0.03824848  0.54089715  0.33854056     0.06400
C1357       C  0.06852868  0.53890115  0.33604582    -0.30700
O1358       O  0.12226760  0.58900503  0.25754824    -0.22500
C1359       C  0.11027773  0.60729625  0.23826335    -0.02500
C1360       C  0.08013871  0.60996399  0.24155479    -0.16900
H1361       H  0.02677051  0.59545780  0.27114894     0.21100
H1362       H  0.12194776  0.55221388  0.30544171     0.19400
H1363       H  0.08330584  0.52509002  0.34836490     0.19400
H1364       H  0.06530596  0.62414779  0.22971833     0.15200
C1365       C  0.91454226  0.40595247  0.28332427     0.30700
C1366       C  0.93175167  0.40471260  0.30843836    -0.35600
C1367       C  0.94000904  0.43169081  0.31990259     0.16700
C1368       C  0.93229703  0.45800354  0.30713989     0.22500
C1369       C  0.91459743  0.45926267  0.28237453    -0.33800
C1370       C  0.90595234  0.43229921  0.27119257     0.16600
O1371       O  0.90440604  0.38340227  0.26906610    -0.25800
C1372       C  0.88882604  0.39539412  0.24770952     0.06400
C1373       C  0.88881794  0.42579445  0.24803641    -0.30700
O1374       O  0.94456866  0.48041263  0.31983027    -0.22500
C1375       C  0.95986524  0.46844637  0.34142219    -0.02500
C1376       C  0.95766795  0.43815717  0.34268796    -0.16900
H1377       H  0.93848476  0.38416150  0.31815146     0.21100
H1378       H  0.90840429  0.47979992  0.27228319     0.19400
H1379       H  0.87759113  0.44080256  0.23357179     0.19400
H1380       H  0.96919438  0.42307348  0.35683746     0.15200
C1381       C  0.29969739  0.55085043  0.07613379     0.30700
C1382       C  0.27950140  0.54955505  0.09913719    -0.35600
C1383       C  0.26125771  0.57407784  0.10244535     0.16700
C1384       C  0.26283077  0.59823615  0.08440841     0.22500
C1385       C  0.28328969  0.59969915  0.06163438    -0.33800
C1386       C  0.30161211  0.57520382  0.05837250     0.16600
O1387       O  0.31685635  0.52933830  0.06743813    -0.25800
C1388       C  0.33042340  0.54022050  0.04418358     0.06400
C1389       C  0.32185566  0.56870499  0.03753150    -0.30700
O1390       O  0.24428808  0.61903679  0.09197934    -0.22500
C1391       C  0.23062191  0.60810408  0.11517642    -0.02500
C1392       C  0.24025446  0.58012490  0.12264265    -0.16900
H1393       H  0.27777811  0.53054489  0.11313592     0.21100
H1394       H  0.28465012  0.61850571  0.04732238     0.19400
H1395       H  0.32768702  0.58163055  0.01862802     0.19400
H1396       H  0.23391983  0.56691504  0.14118984     0.15200
C1397       C  0.27647724  0.39810597  0.91673704     0.30700
C1398       C  0.30521510  0.40428067  0.92463098    -0.35600
C1399       C  0.30883673  0.42808164  0.94296157     0.16700
C1400       C  0.28574406  0.44468635  0.95305783     0.22500
C1401       C  0.25671832  0.43841780  0.94518764    -0.33800
C1402       C  0.25304248  0.41445715  0.92659072     0.16600
O1403       O  0.26871927  0.37731462  0.89907753    -0.25800
C1404       C  0.23984604  0.37991155  0.89729852     0.06400
C1405       C  0.22863792  0.40271318  0.91407445    -0.30700
O1406       O  0.29449389  0.46608312  0.96988405    -0.22500
C1407       C  0.32358213  0.46317115  0.97043227    -0.02500
C1408       C  0.33358555  0.43972931  0.95399269    -0.16900
H1409       H  0.32357741  0.39153173  0.91669281     0.21100
H1410       H  0.23840322  0.45143050  0.95279977     0.19400
H1411       H  0.20616319  0.40995925  0.91614588     0.19400
H1412       H  0.35575207  0.43204873  0.95068584     0.15200
C1413       C  0.72185487  0.56351446  0.94876930     0.30700
C1414       C  0.75052789  0.57338002  0.94354022    -0.35600
C1415       C  0.75431851  0.59171206  0.91917286     0.16700
C1416       C  0.73128263  0.59960519  0.90154731     0.22500
C1417       C  0.70281343  0.58984112  0.90678844    -0.33800
C1418       C  0.69909061  0.57160686  0.93095070     0.16600
O1419       O  0.71331489  0.54589055  0.96987801    -0.25800
C1420       C  0.68468355  0.54265093  0.96558570     0.06400
C1421       C  0.67470577  0.55831608  0.94154751    -0.30700
O1422       O  0.73917214  0.61704005  0.88027617    -0.22500
C1423       C  0.76771373  0.62059699  0.88388095    -0.02500
C1424       C  0.77857154  0.60529115  0.90783778    -0.16900
H1425       H  0.76855014  0.56712916  0.95741811     0.21100
H1426       H  0.68478294  0.59606535  0.89290195     0.19400
H1427       H  0.65291176  0.55946197  0.93267882     0.19400
H1428       H  0.80069476  0.60472065  0.91595602     0.15200
C1429       C  0.75331946  0.42880337  0.09830513     0.30700
C1430       C  0.74134998  0.45671473  0.09319295    -0.35600
C1431       C  0.71792767  0.45812142  0.07368334     0.16700
C1432       C  0.70697830  0.43381749  0.06010828     0.22500
C1433       C  0.71932054  0.40602045  0.06480788    -0.33800
C1434       C  0.74283471  0.40462234  0.08416893     0.16600
O1435       O  0.77353282  0.42196837  0.11759240    -0.25800
C1436       C  0.77632568  0.39306846  0.11543377     0.06400
C1437       C  0.75801091  0.38121412  0.09470931    -0.30700
O1438       O  0.68549539  0.44030282  0.04209238    -0.22500
C1439       C  0.68262015  0.46917159  0.04414296    -0.02500
C1440       C  0.70229891  0.48137782  0.06344078    -0.16900
H1441       H  0.74939998  0.47590130  0.10400608     0.21100
H1442       H  0.71104030  0.38678227  0.05426544     0.19400
H1443       H  0.75458640  0.35838637  0.08993064     0.19400
H1444       H  0.70561546  0.50427485  0.06797677     0.15200
loop_ 
_geom_bond_atom_site_label_1 
_geom_bond_atom_site_label_2 
_geom_bond_distance 
_geom_bond_site_symmetry_2 
_ccdc_geom_bond_type 
Zn1           O5   1.978   1_554  S
Zn1           O6   2.035       .  S
Zn1          O10   2.029       .  S
Zn1          O17   2.026       .  S
Zn2           O5   1.985   1_554  S
Zn2           O7   2.058       .  S
Zn2           O9   2.061       .  S
Zn2          O13   2.052       .  S
Zn3           O5   1.989       .  S
Zn3           O8   2.061       .  S
Zn3          O11   2.055       .  S
Zn3          O14   2.061       .  S
Zn4           O5   1.988       .  S
Zn4          O12   2.065       .  S
Zn4          O15   2.059       .  S
Zn4          O16   2.057       .  S
O6           C18   1.275       .  A
O7           C19   1.280   1_554  A
O8           C20   1.279       .  A
O9           C18   1.279       .  A
O10          C20   1.275   1_554  A
O11          C19   1.279       .  A
O12          C21   1.280       .  A
O13          C22   1.278   1_554  A
O14          C21   1.280       .  A
O15          C22   1.280       .  A
O16          C23   1.278       .  A
O17          C23   1.275   1_554  A
C18         C387   1.498       .  S
C19         C241   1.501       .  S
C20         C104   1.496   1_556  S
C21         C480   1.505       .  S
C22          C97   1.501       .  S
C23         C252   1.494       .  S
Zn24         O28   1.975   1_565  S
Zn24         O29   2.039       .  S
Zn24         O33   2.035       .  S
Zn24         O40   2.026       .  S
Zn25         O28   1.972       .  S
Zn25         O30   2.028       .  S
Zn25         O32   2.040       .  S
Zn25         O36   2.045       .  S
Zn26         O28   1.988       .  S
Zn26         O31   2.060       .  S
Zn26         O34   2.055       .  S
Zn26         O37   2.064       .  S
Zn27         O28   1.973   1_565  S
Zn27         O35   2.025       .  S
Zn27         O38   2.032       .  S
Zn27         O39   2.037       .  S
O29          C41   1.275   1_565  A
O30          C42   1.276       .  A
O31          C43   1.280       .  A
O32          C41   1.277       .  A
O33          C43   1.276   1_565  A
O34          C42   1.279       .  A
O35          C44   1.276   1_565  A
O36          C45   1.277       .  A
O37          C44   1.279       .  A
O38          C45   1.275   1_565  A
O39          C46   1.275       .  A
O40          C46   1.276       .  A
C41         C259   1.494       .  S
C42         C428   1.494       .  S
C43         C533   1.497       .  S
C44         C309   1.496       .  S
C45         C544   1.494       .  S
C46         C437   1.490       .  S
Zn47         O51   1.982   1_655  S
Zn47         O52   2.050       .  S
Zn47         O56   2.054       .  S
Zn47         O63   2.042       .  S
Zn48         O51   1.988       .  S
Zn48         O53   2.038       .  S
Zn48         O55   2.052       .  S
Zn48         O59   2.046       .  S
Zn49         O51   1.992   1_655  S
Zn49         O54   2.065       .  S
Zn49         O57   2.057       .  S
Zn49         O60   2.062       .  S
Zn50         O51   1.987       .  S
Zn50         O58   2.045       .  S
Zn50         O61   2.043       .  S
Zn50         O62   2.052       .  S
O52          C64   1.277   1_655  A
O53          C65   1.276       .  A
O54          C66   1.278       .  A
O55          C64   1.276       .  A
O56          C66   1.277       .  A
O57          C65   1.278   1_655  A
O58          C67   1.277       .  A
O59          C68   1.276       .  A
O60          C67   1.278   1_655  A
O61          C68   1.276       .  A
O62          C69   1.276       .  A
O63          C69   1.276   1_655  A
C64         C571   1.484       .  S
C65         C131   1.481       .  S
C66         C396   1.488       .  S
C67         C551   1.484       .  S
C68         C469   1.479       .  S
C69         C113   1.481       .  S
Zn70         O74   1.980   1_565  S
Zn70         O75   2.045       .  S
Zn70         O79   2.044       .  S
Zn70         O86   2.034       .  S
Zn71         O74   1.972   1_466  S
Zn71         O76   2.035       .  S
Zn71         O78   2.040       .  S
Zn71         O82   2.032       .  S
Zn72         O74   1.979   1_556  S
Zn72         O77   2.033       .  S
Zn72         O80   2.044       .  S
Zn72         O83   2.057       .  S
Zn73         O74   1.974   1_455  S
Zn73         O81   2.039       .  S
Zn73         O84   2.040       .  S
Zn73         O85   2.025       .  S
O75          C87   1.275       .  A
O76          C88   1.275   1_465  A
O77          C89   1.275   1_556  A
O78          C87   1.275   1_456  A
O79          C89   1.276   1_565  A
O80          C88   1.276       .  A
O81          C90   1.275   1_455  A
O82          C91   1.274       .  A
O83          C90   1.277   1_556  A
O84          C91   1.275   1_544  A
O85          C92   1.274   1_455  A
O86          C92   1.274   1_565  A
C87         C163   1.479       .  S
C88         C624   1.476       .  S
C89         C279   1.476       .  S
C90         C122   1.482       .  S
C91         C268   1.475       .  S
C92         C560   1.471       .  S
C93        C1420   1.488       .  S
C93          C94   1.397   1_556  A
C93          C98   1.413       .  A
C94          C95   1.395       .  A
C94          H99   1.084       .  S
C95        C1439   1.476       .  S
C95          C96   1.408       .  A
C96          C97   1.417   1_554  A
C96         H100   1.083       .  S
C97          C98   1.415       .  A
C98         H101   1.081       .  S
C102       C1388   1.469       .  S
C102        C103   1.403       .  A
C102        C107   1.396       .  A
C103        C104   1.413       .  A
C103        H108   1.083       .  S
C104        C105   1.414   1_554  A
C105        C106   1.415       .  A
C105        H109   1.081       .  S
C106       C1407   1.488       .  S
C106        C107   1.399   1_556  A
C107        H110   1.084       .  S
C111       C1356   1.477       .  S
C111        C112   1.410       .  A
C111        C116   1.397   1_455  A
C112        C113   1.413       .  A
C112        H117   1.083       .  S
C113        C114   1.409   1_455  A
C114        C115   1.406       .  A
C114        H118   1.084       .  S
C115       C1375   1.475       .  S
C115        C116   1.397       .  A
C116        H119   1.085       .  S
C120       C1340   1.484       .  S
C120        C121   1.411       .  A
C120        C125   1.398   1_456  A
C121        C122   1.409   1_456  A
C121        H126   1.083       .  S
C122        C123   1.412       .  A
C123        C124   1.409       .  A
C123        H127   1.084       .  S
C124       C1324   1.476       .  S
C124        C125   1.397       .  A
C125        H128   1.085   1_655  S
C129       C1311   1.486       .  S
C129        C130   1.411       .  A
C129        C134   1.400       .  A
C130        C131   1.408       .  A
C130        H135   1.082       .  S
C131        C132   1.408   1_455  A
C132        C133   1.411       .  A
C132        H136   1.082       .  S
C133       C1295   1.487       .  S
C133        C134   1.399   1_655  A
C134        H137   1.083       .  S
Zn138       O142   1.939       .  S
Zn138       O143   1.958       .  S
Zn138       O147   1.998       .  S
Zn138       O154   1.985       .  S
Zn139       O142   2.003       .  S
Zn139       O144   2.102       .  S
Zn139       O146   2.104       .  S
Zn139       O150   2.106       .  S
Zn140       O142   1.931       .  S
Zn140       O145   1.995       .  S
Zn140       O148   1.941       .  S
Zn140       O151   1.985       .  S
Zn141       O142   1.952       .  S
Zn141       O149   2.022       .  S
Zn141       O152   1.952       .  S
Zn141       O153   2.012       .  S
O143        C155   1.269       .  A
O144        C156   1.283       .  A
O145        C157   1.268       .  A
O146        C155   1.284       .  A
O147        C157   1.268       .  A
O148        C156   1.266       .  A
O149        C158   1.271       .  A
O150        C159   1.284       .  A
O151        C158   1.268       .  A
O152        C159   1.268       .  A
O153        C160   1.269       .  A
O154        C160   1.267       .  A
C155       C1404   1.474       .  S
C156       C1308   1.470       .  S
C157        C505   1.461       .  S
C158        C676   1.464       .  S
C159       C1343   1.473       .  S
C160        C334   1.454       .  S
C161       C1263   1.471       .  S
C161        C162   1.404       .  A
C161        C166   1.395   1_455  A
C162        C163   1.409   1_455  A
C162        H167   1.084       .  S
C163        C164   1.410   1_554  A
C164        C165   1.411       .  A
C164        H168   1.084       .  S
C165       C1276   1.487       .  S
C165        C166   1.403   1_556  A
C166        H169   1.081   1_655  S
Zn170       O174   1.999       .  S
Zn170       O175   2.089       .  S
Zn170       O179   2.106       .  S
Zn170       O186   2.106       .  S
Zn171       O174   1.947       .  S
Zn171       O176   2.021       .  S
Zn171       O178   1.950       .  S
Zn171       O182   2.020       .  S
Zn172       O174   1.937       .  S
Zn172       O177   1.943       .  S
Zn172       O180   1.979       .  S
Zn172       O183   1.987       .  S
Zn173       O174   1.930       .  S
Zn173       O181   1.983       .  S
Zn173       O184   1.982       .  S
Zn173       O185   1.945       .  S
O175        C187   1.283       .  A
O176        C188   1.271       .  A
O177        C189   1.267       .  A
O178        C187   1.269       .  A
O179        C189   1.284       .  A
O180        C188   1.266       .  A
O181        C190   1.267       .  A
O182        C191   1.270       .  A
O183        C190   1.266       .  A
O184        C191   1.266       .  A
O185        C192   1.267       .  A
O186        C192   1.284       .  A
C187       C1279   1.472       .  S
C188        C648   1.455       .  S
C189       C1292   1.472       .  S
C190        C529   1.457       .  S
C191        C301   1.455       .  S
C192       C1423   1.473       .  S
Zn193       O197   1.873       .  S
Zn193       O198   1.965       .  S
Zn193       O202   1.956       .  S
Zn193       O209   1.993       .  S
Zn194       O197   1.947       .  S
Zn194       O199   2.039       .  S
Zn194       O201   2.070       .  S
Zn194       O205   2.032       .  S
Zn195       O197   1.946       .  S
Zn195       O200   2.061       .  S
Zn195       O203   2.026       .  S
Zn195       O206   2.055       .  S
Zn196       O197   1.913       .  S
Zn196       O204   2.002       .  S
Zn196       O207   2.025       .  S
Zn196       O208   2.036       .  S
O198        C210   1.263       .  A
O199        C211   1.281       .  A
O200        C212   1.273       .  A
O201        C210   1.274       .  A
O202        C212   1.267       .  A
O203        C211   1.279       .  A
O204        C213   1.274       .  A
O205        C214   1.278       .  A
O206        C213   1.281       .  A
O207        C214   1.278       .  A
O208        C215   1.272       .  A
O209        C215   1.268       .  A
C210        C421   1.457       .  S
C211       C1372   1.469       .  S
C212        C617   1.463       .  S
C213       C1327   1.472       .  S
C214       C1436   1.472       .  S
C215        C383   1.460       .  S
Zn216       O220   1.829       .  S
Zn216       O221   1.887       .  S
Zn216       O225   1.900       .  S
Zn216       O232   1.898       .  S
Zn217       O220   2.007       .  S
Zn217       O222   2.038       .  S
Zn217       O224   2.114       .  S
Zn217       O228   2.047       .  S
Zn218       O220   2.002       .  S
Zn218       O223   2.117       .  S
Zn218       O226   2.035       .  S
Zn218       O229   2.019       .  S
Zn219       O220   2.002       .  S
Zn219       O227   2.030       .  S
Zn219       O230   2.030       .  S
Zn219       O231   2.110       .  S
O221        C233   1.259       .  A
O222        C234   1.280       .  A
O223        C235   1.271       .  A
O224        C233   1.272       .  A
O225        C235   1.259       .  A
O226        C234   1.280       .  A
O227        C236   1.280       .  A
O228        C237   1.281       .  A
O229        C236   1.278       .  A
O230        C237   1.278       .  A
O231        C238   1.271       .  A
O232        C238   1.259       .  A
C233        C594   1.476       .  S
C234       C1260   1.475       .  S
C235        C359   1.479       .  S
C236       C1391   1.469       .  S
C237       C1359   1.475       .  S
C238        C466   1.476       .  S
C239       C1228   1.490       .  S
C239        C240   1.412       .  A
C239        C244   1.401   1_554  A
C240        C241   1.414   1_554  A
C240        H245   1.081       .  S
C241        C242   1.417       .  A
C242        C243   1.409       .  A
C242        H246   1.083       .  S
C243       C1244   1.480       .  S
C243        C244   1.398       .  A
C244        H247   1.084       .  S
C248       C1196   1.474       .  S
C248        C249   1.398       .  A
C248        C253   1.408       .  A
C249        C250   1.397   1_556  A
C249        H254   1.085       .  S
C250       C1212   1.477       .  S
C250        C251   1.406       .  A
C251        C252   1.414   1_554  A
C251        H255   1.083       .  S
C252        C253   1.414       .  A
C253        H256   1.083       .  S
C257       C1167   1.485       .  S
C257        C258   1.409       .  A
C257        C262   1.400       .  A
C258        C259   1.411       .  A
C258        H263   1.081       .  S
C259        C260   1.413   1_545  A
C260        C261   1.408       .  A
C260        H264   1.083       .  S
C261       C1180   1.475       .  S
C261        C262   1.398   1_565  A
C262        H265   1.084       .  S
C266       C1148   1.478       .  S
C266        C267   1.408       .  A
C266        C271   1.399   1_545  A
C267        C268   1.408   1_545  A
C267        H272   1.084       .  S
C268        C269   1.407   1_556  A
C269        C270   1.405       .  A
C269        H273   1.084       .  S
C270       C1132   1.472       .  S
C270        C271   1.399   1_554  A
C271        H274   1.085       .  S
C275       C1103   1.486       .  S
C275        C276   1.403   1_545  A
C275        C280   1.409       .  A
C276        C277   1.399   1_554  A
C276        H281   1.082       .  S
C277       C1119   1.473       .  S
C277        C278   1.403       .  A
C278        C279   1.407   1_566  A
C278        H282   1.084       .  S
C279        C280   1.408       .  A
C280        H283   1.084       .  S
Zn284       O288   1.854       .  S
Zn284       O289   1.977       .  S
Zn284       O293   1.968       .  S
Zn284       O300   1.963       .  S
Zn285       O288   1.923       .  S
Zn285       O290   2.017       .  S
Zn285       O292   2.054       .  S
Zn285       O296   2.045       .  S
Zn286       O288   1.927       .  S
Zn286       O291   2.054       .  S
Zn286       O294   2.044       .  S
Zn286       O297   2.027       .  S
Zn287       O288   1.930       .  S
Zn287       O295   2.039       .  S
Zn287       O298   2.031       .  S
Zn287       O299   2.071       .  S
O289        C301   1.264       .  A
O290        C302   1.278       .  A
O291        C303   1.274       .  A
O292        C301   1.272       .  A
O293        C303   1.268       .  A
O294        C302   1.280       .  A
O295        C304   1.281       .  A
O296        C305   1.280       .  A
O297        C304   1.280       .  A
O298        C305   1.280       .  A
O299        C306   1.274       .  A
O300        C306   1.263       .  A
C302       C1116   1.471       .  S
C303        C653   1.465       .  S
C304       C1084   1.473       .  S
C305       C1199   1.475       .  S
C306        C528   1.457       .  S
C307       C1071   1.474       .  S
C307        C308   1.410       .  A
C307        C312   1.396       .  A
C308        C309   1.417       .  A
C308        H313   1.083       .  S
C309        C310   1.415   1_545  A
C310        C311   1.402       .  A
C310        H314   1.083       .  S
C311       C1087   1.470       .  S
C311        C312   1.393   1_565  A
C312        H315   1.085   1_545  S
Zn316       O320   1.925       .  S
Zn316       O321   2.035       .  S
Zn316       O325   2.062       .  S
Zn316       O332   2.051       .  S
Zn317       O320   1.932       .  S
Zn317       O322   2.046       .  S
Zn317       O324   2.064       .  S
Zn317       O328   2.030       .  S
Zn318       O320   1.860       .  S
Zn318       O323   1.981       .  S
Zn318       O326   1.975       .  S
Zn318       O329   1.971       .  S
Zn319       O320   1.934       .  S
Zn319       O327   2.070       .  S
Zn319       O330   2.051       .  S
Zn319       O331   2.023       .  S
O321        C333   1.280       .  A
O322        C334   1.271       .  A
O323        C335   1.266       .  A
O324        C333   1.283       .  A
O325        C335   1.274       .  A
O326        C334   1.266       .  A
O327        C336   1.274       .  A
O328        C337   1.279       .  A
O329        C336   1.265       .  A
O330        C337   1.281       .  A
O331        C338   1.279       .  A
O332        C338   1.281       .  A
C333       C1247   1.482       .  S
C335        C503   1.462       .  S
C336        C674   1.460       .  S
C337       C1151   1.474       .  S
C338       C1068   1.475       .  S
Zn339       O343   2.007       .  S
Zn339       O344   2.053       .  S
Zn339       O348   2.129       .  S
Zn339       O355   2.031       .  S
Zn340       O343   2.002       .  S
Zn340       O345   2.108       .  S
Zn340       O347   2.028       .  S
Zn340       O351   2.034       .  S
Zn341       O343   1.829       .  S
Zn341       O346   1.890       .  S
Zn341       O349   1.887       .  S
Zn341       O352   1.881       .  S
Zn342       O343   2.003       .  S
Zn342       O350   2.129       .  S
Zn342       O353   2.034       .  S
Zn342       O354   2.022       .  S
O344        C356   1.282       .  A
O345        C357   1.270       .  A
O346        C358   1.257       .  A
O347        C356   1.279       .  A
O348        C358   1.274       .  A
O349        C357   1.258       .  A
O350        C359   1.274       .  A
O351        C360   1.279       .  A
O352        C359   1.256       .  A
O353        C360   1.279       .  A
O354        C361   1.278       .  A
O355        C361   1.278       .  A
C356       C1183   1.472       .  S
C357        C464   1.474       .  S
C358        C595   1.481       .  S
C360       C1215   1.471       .  S
C361       C1135   1.468       .  S
Zn362       O366   1.964       .  S
Zn362       O367   2.083       .  S
Zn362       O371   2.080       .  S
Zn362       O378   2.089       .  S
Zn363       O366   1.936       .  S
Zn363       O368   2.020       .  S
Zn363       O370   1.969       .  S
Zn363       O374   2.009       .  S
Zn364       O366   1.920       .  S
Zn364       O369   1.962       .  S
Zn364       O372   2.002       .  S
Zn364       O375   2.001       .  S
Zn365       O366   1.922       .  S
Zn365       O373   2.010       .  S
Zn365       O376   2.014       .  S
Zn365       O377   1.968       .  S
O367        C379   1.283       .  A
O368        C380   1.269       .  A
O369        C381   1.270       .  A
O370        C379   1.270       .  A
O371        C381   1.283       .  A
O372        C380   1.270       .  A
O373        C382   1.272       .  A
O374        C383   1.271       .  A
O375        C382   1.268       .  A
O376        C383   1.271       .  A
O377        C384   1.270       .  A
O378        C384   1.283       .  A
C379       C1231   1.471       .  S
C380        C423   1.459       .  S
C381       C1164   1.468       .  S
C382        C618   1.451       .  S
C384       C1100   1.476       .  S
C385       C1036   1.479       .  S
C385        C386   1.408       .  A
C385        C390   1.395       .  A
C386        C387   1.419       .  A
C386        H391   1.083       .  S
C387        C388   1.416       .  A
C388        C389   1.408       .  A
C388        H392   1.083       .  S
C389       C1055   1.476       .  S
C389        C390   1.397       .  A
C390        H393   1.085       .  S
C394       C1007   1.484       .  S
C394        C395   1.413       .  A
C394        C399   1.397       .  A
C395        C396   1.414       .  A
C395        H400   1.083       .  S
C396        C397   1.413       .  A
C397        C398   1.409       .  A
C397        H401   1.084       .  S
C398       C1023   1.477       .  S
C398        C399   1.396       .  A
C399        H402   1.085       .  S
Zn403       O407   1.929       .  S
Zn403       O408   2.033       .  S
Zn403       O412   2.047       .  S
Zn403       O419   2.039       .  S
Zn404       O407   1.942       .  S
Zn404       O409   2.061       .  S
Zn404       O411   2.033       .  S
Zn404       O415   2.042       .  S
Zn405       O407   1.867       .  S
Zn405       O410   1.970       .  S
Zn405       O413   1.974       .  S
Zn405       O416   1.961       .  S
Zn406       O407   1.933       .  S
Zn406       O414   2.061       .  S
Zn406       O417   2.026       .  S
Zn406       O418   2.023       .  S
O408        C420   1.279       .  A
O409        C421   1.273       .  A
O410        C422   1.268       .  A
O411        C420   1.280       .  A
O412        C422   1.274       .  A
O413        C421   1.265       .  A
O414        C423   1.274       .  A
O415        C424   1.279       .  A
O416        C423   1.265       .  A
O417        C424   1.279       .  A
O418        C425   1.278       .  A
O419        C425   1.278       .  A
C420       C1020   1.470       .  S
C422        C619   1.463       .  S
C424       C1052   1.471       .  S
C425        C991   1.472       .  S
C426        C975   1.489       .  S
C426        C427   1.412       .  A
C426        C431   1.402       .  A
C427        C428   1.414       .  A
C427        H432   1.083       .  S
C428        C429   1.413       .  A
C429        C430   1.402       .  A
C429        H433   1.083       .  S
C430        C988   1.473       .  S
C430        C431   1.395       .  A
C431        H434   1.081       .  S
C435        C940   1.488       .  S
C435        C436   1.415       .  A
C435        C440   1.399       .  A
C436        C437   1.415       .  A
C436        H441   1.081       .  S
C437        C438   1.409       .  A
C438        C439   1.399       .  A
C438        H442   1.084       .  S
C439        C959   1.465       .  S
C439        C440   1.394       .  A
C440        H443   1.084       .  S
Zn444       O448   2.002       .  S
Zn444       O449   2.038       .  S
Zn444       O453   2.042       .  S
Zn444       O460   2.120       .  S
Zn445       O448   2.003       .  S
Zn445       O450   2.029       .  S
Zn445       O452   2.019       .  S
Zn445       O456   2.121       .  S
Zn446       O448   2.003       .  S
Zn446       O451   2.054       .  S
Zn446       O454   2.030       .  S
Zn446       O457   2.117       .  S
Zn447       O448   1.828       .  S
Zn447       O455   1.875       .  S
Zn447       O458   1.891       .  S
Zn447       O459   1.879       .  S
O449        C461   1.280       .  A
O450        C462   1.279       .  A
O451        C463   1.281       .  A
O452        C461   1.277       .  A
O453        C463   1.280       .  A
O454        C462   1.279       .  A
O455        C464   1.256       .  A
O456        C465   1.272       .  A
O457        C464   1.272       .  A
O458        C465   1.257       .  A
O459        C466   1.256       .  A
O460        C466   1.273       .  A
C461        C927   1.467       .  S
C462        C956   1.468       .  S
C463       C1039   1.481       .  S
C465        C596   1.479       .  S
C467        C908   1.485       .  S
C467        C468   1.413       .  A
C467        C472   1.401       .  A
C468        C469   1.413       .  A
C468        H473   1.083       .  S
C469        C470   1.406       .  A
C470        C471   1.402       .  A
C470        H474   1.084       .  S
C471        C924   1.470       .  S
C471        C472   1.396       .  A
C472        H475   1.084       .  S
C476        C876   1.491       .  S
C476        C477   1.398       .  A
C476        C481   1.414       .  A
C477        C478   1.396       .  A
C477        H482   1.083       .  S
C478        C892   1.492       .  S
C478        C479   1.413       .  A
C479        C480   1.418       .  A
C479        H483   1.082       .  S
C480        C481   1.419       .  A
C481        H484   1.082       .  S
Zn485       O489   1.998       .  S
Zn485       O490   2.107       .  S
Zn485       O494   2.111       .  S
Zn485       O501   2.111       .  S
Zn486       O489   1.938       .  S
Zn486       O491   1.997       .  S
Zn486       O493   1.951       .  S
Zn486       O497   1.995       .  S
Zn487       O489   1.944       .  S
Zn487       O492   1.951       .  S
Zn487       O495   2.025       .  S
Zn487       O498   2.008       .  S
Zn488       O489   1.934       .  S
Zn488       O496   1.996       .  S
Zn488       O499   1.994       .  S
Zn488       O500   1.952       .  S
O490        C502   1.285       .  A
O491        C503   1.268       .  A
O492        C504   1.268       .  A
O493        C502   1.269       .  A
O494        C504   1.285       .  A
O495        C503   1.270       .  A
O496        C505   1.269       .  A
O497        C506   1.268       .  A
O498        C505   1.271       .  A
O499        C506   1.269       .  A
O500        C507   1.268       .  A
O501        C507   1.284       .  A
C502        C972   1.477       .  S
C504        C895   1.476       .  S
C506        C673   1.460       .  S
C507        C911   1.479       .  S
Zn508       O512   2.005       .  S
Zn508       O513   2.124       .  S
Zn508       O517   2.122       .  S
Zn508       O524   2.115       .  S
Zn509       O512   1.948       .  S
Zn509       O514   2.011       .  S
Zn509       O516   1.944       .  S
Zn509       O520   2.004       .  S
Zn510       O512   1.933       .  S
Zn510       O515   1.931       .  S
Zn510       O518   1.988       .  S
Zn510       O521   2.004       .  S
Zn511       O512   1.938       .  S
Zn511       O519   2.010       .  S
Zn511       O522   1.985       .  S
Zn511       O523   1.936       .  S
O513        C525   1.286       .  A
O514        C526   1.268       .  A
O515        C527   1.267       .  A
O516        C525   1.266       .  A
O517        C527   1.287       .  A
O518        C526   1.267       .  A
O519        C528   1.268       .  A
O520        C529   1.271       .  A
O521        C528   1.267       .  A
O522        C529   1.268       .  A
O523        C530   1.265       .  A
O524        C530   1.285       .  A
C525       C1004   1.477       .  S
C526        C650   1.453       .  S
C527        C943   1.473       .  S
C530        C879   1.474       .  S
C531        C847   1.491       .  S
C531        C532   1.413       .  A
C531        C536   1.400   1_545  A
C532        C533   1.414       .  A
C532        H537   1.081       .  S
C533        C534   1.415   1_545  A
C534        C535   1.406       .  A
C534        H538   1.083       .  S
C535        C860   1.476       .  S
C535        C536   1.398       .  A
C536        H539   1.084       .  S
C540        C812   1.477       .  S
C540        C541   1.399       .  A
C540        C545   1.405       .  A
C541        C542   1.401   1_565  A
C541        H546   1.085       .  S
C542        C828   1.480       .  S
C542        C543   1.408       .  A
C543        C544   1.414       .  A
C543        H547   1.083       .  S
C544        C545   1.414   1_545  A
C545        H548   1.083       .  S
C549        C783   1.492       .  S
C549        C550   1.415       .  A
C549        C554   1.402       .  A
C550        C551   1.415       .  A
C550        H555   1.083       .  S
C551        C552   1.408   1_455  A
C552        C553   1.404       .  A
C552        H556   1.084       .  S
C553        C796   1.476       .  S
C553        C554   1.396   1_655  A
C554        H557   1.082       .  S
C558        C767   1.476       .  S
C558        C559   1.409       .  A
C558        C563   1.399   1_565  A
C559        C560   1.408   1_465  A
C559        H564   1.084       .  S
C560        C561   1.403       .  A
C561        C562   1.400       .  A
C561        H565   1.084       .  S
C562        C748   1.464       .  S
C562        C563   1.398   1_655  A
C563        H566   1.085       .  S
C567        C732   1.477       .  S
C567        C568   1.401   1_655  A
C567        C572   1.408       .  A
C568        C569   1.399       .  A
C568        H573   1.085   1_455  S
C569        C719   1.481       .  S
C569        C570   1.409       .  A
C570        C571   1.412       .  A
C570        H574   1.084       .  S
C571        C572   1.411   1_455  A
C572        H575   1.084       .  S
Zn576       O580   2.004       .  S
Zn576       O581   2.036       .  S
Zn576       O585   2.123       .  S
Zn576       O592   2.019       .  S
Zn577       O580   2.015       .  S
Zn577       O582   2.125       .  S
Zn577       O584   2.054       .  S
Zn577       O588   2.066       .  S
Zn578       O580   1.832       .  S
Zn578       O583   1.898       .  S
Zn578       O586   1.875       .  S
Zn578       O589   1.892       .  S
Zn579       O580   2.003       .  S
Zn579       O587   2.121       .  S
Zn579       O590   2.040       .  S
Zn579       O591   2.043       .  S
O581        C593   1.280       .  A
O582        C594   1.274       .  A
O583        C595   1.258       .  A
O584        C593   1.282       .  A
O585        C595   1.272       .  A
O586        C594   1.257       .  A
O587        C596   1.273       .  A
O588        C597   1.283       .  A
O589        C596   1.258       .  A
O590        C597   1.280       .  A
O591        C598   1.281       .  A
O592        C598   1.277       .  A
C593        C764   1.475       .  S
C597        C716   1.482       .  S
C598        C863   1.470       .  S
Zn599       O603   1.928       .  S
Zn599       O604   2.010       .  S
Zn599       O608   2.058       .  S
Zn599       O615   2.033       .  S
Zn600       O603   1.939       .  S
Zn600       O605   2.072       .  S
Zn600       O607   2.026       .  S
Zn600       O611   2.018       .  S
Zn601       O603   1.851       .  S
Zn601       O606   1.950       .  S
Zn601       O609   1.958       .  S
Zn601       O612   1.968       .  S
Zn602       O603   1.925       .  S
Zn602       O610   2.049       .  S
Zn602       O613   2.044       .  S
Zn602       O614   2.051       .  S
O604        C616   1.277       .  A
O605        C617   1.274       .  A
O606        C618   1.263       .  A
O607        C616   1.279       .  A
O608        C618   1.272       .  A
O609        C617   1.263       .  A
O610        C619   1.274       .  A
O611        C620   1.278       .  A
O612        C619   1.268       .  A
O613        C620   1.281       .  A
O614        C621   1.281       .  A
O615        C621   1.280       .  A
C616        C751   1.464       .  S
C620        C799   1.469       .  S
C621        C831   1.475       .  S
C622        C684   1.485       .  S
C622        C623   1.413       .  A
C622        C627   1.399   1_455  A
C623        C624   1.410   1_455  A
C623        H628   1.082       .  S
C624        C625   1.406   1_545  A
C625        C626   1.401       .  A
C625        H629   1.084       .  S
C626        C703   1.465       .  S
C626        C627   1.396   1_565  A
C627        H630   1.085       .  S
Zn631       O635   1.846       .  S
Zn631       O636   1.982       .  S
Zn631       O640   1.953       .  S
Zn631       O647   1.962       .  S
Zn632       O635   1.913       .  S
Zn632       O637   2.042       .  S
Zn632       O639   2.046       .  S
Zn632       O643   2.000       .  S
Zn633       O635   1.927       .  S
Zn633       O638   2.066       .  S
Zn633       O641   2.033       .  S
Zn633       O644   2.053       .  S
Zn634       O635   1.923       .  S
Zn634       O642   2.041       .  S
Zn634       O645   2.042       .  S
Zn634       O646   2.062       .  S
O636        C648   1.266       .  A
O637        C649   1.280       .  A
O638        C650   1.274       .  A
O639        C648   1.270       .  A
O640        C650   1.263       .  A
O641        C649   1.281       .  A
O642        C651   1.282       .  A
O643        C652   1.278       .  A
O644        C651   1.282       .  A
O645        C652   1.280       .  A
O646        C653   1.276       .  A
O647        C653   1.266       .  A
C649        C735   1.476       .  S
C651        C815   1.479       .  S
C652        C700   1.470       .  S
Zn654       O658   1.933       .  S
Zn654       O659   1.951       .  S
Zn654       O663   1.993       .  S
Zn654       O670   1.984       .  S
Zn655       O658   1.997       .  S
Zn655       O660   2.108       .  S
Zn655       O662   2.112       .  S
Zn655       O666   2.094       .  S
Zn656       O658   1.948       .  S
Zn656       O661   2.006       .  S
Zn656       O664   1.960       .  S
Zn656       O667   2.031       .  S
Zn657       O658   1.946       .  S
Zn657       O665   1.985       .  S
Zn657       O668   1.961       .  S
Zn657       O669   2.017       .  S
O659        C671   1.268       .  A
O660        C672   1.284       .  A
O661        C673   1.271       .  A
O662        C671   1.285       .  A
O663        C673   1.269       .  A
O664        C672   1.269       .  A
O665        C674   1.267       .  A
O666        C675   1.284       .  A
O667        C674   1.271       .  A
O668        C675   1.270       .  A
O669        C676   1.270       .  A
O670        C676   1.268       .  A
C671        C780   1.479       .  S
C672        C844   1.476       .  S
C675        C687   1.471       .  S
C677        C682   1.378       .  A
C677        C678   1.408       .  A
C677        O683   1.318       .  A
C678        C679   1.405       .  A
C678        H689   1.082       .  S
C679        C688   1.372       .  A
C679        C680   1.380       .  A
C680        C681   1.403       .  A
C680        O686   1.312       .  A
C681        C682   1.399       .  A
C681        H690   1.082       .  S
C682        C685   1.364       .  A
O683        C684   1.335       .  A
C684        C685   1.392       .  A
C685        H691   1.082       .  S
O686        C687   1.331       .  A
C687        C688   1.393       .  A
C688        H692   1.082       .  S
C693        C698   1.380       .  A
C693        C694   1.408       .  A
C693        O699   1.323       .  A
C694        C695   1.407       .  A
C694        H705   1.081       .  S
C695        C704   1.367       .  A
C695        C696   1.381       .  A
C696        C697   1.398       .  A
C696        O702   1.314       .  A
C697        C698   1.397       .  A
C697        H706   1.082       .  S
C698        C701   1.354       .  A
O699        C700   1.334       .  A
C700        C701   1.390       .  A
C701        H707   1.082       .  S
O702        C703   1.327       .  A
C703        C704   1.393       .  A
C704        H708   1.082       .  S
C709        C714   1.379       .  A
C709        C710   1.407       .  A
C709        O715   1.320       .  A
C710        C711   1.405       .  A
C710        H721   1.082       .  S
C711        C720   1.367       .  A
C711        C712   1.379       .  A
C712        C713   1.409       .  A
C712        O718   1.322       .  A
C713        C714   1.408       .  A
C713        H722   1.082       .  S
C714        C717   1.370       .  A
O715        C716   1.333       .  A
C716        C717   1.395       .  A
C717        H723   1.082       .  S
O718        C719   1.334       .  A
C719        C720   1.391       .  A
C720        H724   1.082       .  S
C725        C730   1.380       .  A
C725        C726   1.401       .  A
C725        O731   1.316       .  A
C726        C727   1.399       .  A
C726        H737   1.082       .  S
C727        C736   1.360       .  A
C727        C728   1.379       .  A
C728        C729   1.411       .  A
C728        O734   1.324       .  A
C729        C730   1.410       .  A
C729        H738   1.082       .  S
C730        C733   1.371       .  A
O731        C732   1.329       .  A
C732        C733   1.395       .  A
C733        H739   1.082       .  S
O734        C735   1.335       .  A
C735        C736   1.390       .  A
C736        H740   1.082       .  S
C741        C746   1.381       .  A
C741        C742   1.403       .  A
C741        O747   1.317       .  A
C742        C743   1.401       .  A
C742        H753   1.082       .  S
C743        C752   1.362       .  A
C743        C744   1.380       .  A
C744        C745   1.401       .  A
C744        O750   1.315       .  A
C745        C746   1.400       .  A
C745        H754   1.082       .  S
C746        C749   1.359       .  A
O747        C748   1.330       .  A
C748        C749   1.389       .  A
C749        H755   1.082       .  S
O750        C751   1.330       .  A
C751        C752   1.391       .  A
C752        H756   1.082       .  S
C757        C762   1.380       .  A
C757        C758   1.406       .  A
C757        O763   1.321       .  A
C758        C759   1.404       .  A
C758        H769   1.082       .  S
C759        C768   1.365       .  A
C759        C760   1.380       .  A
C760        C761   1.405       .  A
C760        O766   1.319       .  A
C761        C762   1.404       .  A
C761        H770   1.082       .  S
C762        C765   1.364       .  A
O763        C764   1.332       .  A
C764        C765   1.393       .  A
C765        H771   1.082       .  S
O766        C767   1.332       .  A
C767        C768   1.391       .  A
C768        H772   1.082       .  S
C773        C778   1.380       .  A
C773        C774   1.406       .  A
C773        O779   1.328       .  A
C774        C775   1.409       .  A
C774        H785   1.082       .  S
C775        C784   1.359       .  A
C775        C776   1.379       .  A
C776        C777   1.402       .  A
C776        O782   1.324       .  A
C777        C778   1.405       .  A
C777        H786   1.082       .  S
C778        C781   1.354       .  A
O779        C780   1.333       .  A
C780        C781   1.394       .  A
C781        H787   1.083       .  S
O782        C783   1.332       .  A
C783        C784   1.400       .  A
C784        H788   1.082       .  S
C789        C794   1.380       .  A
C789        C790   1.403       .  A
C789        O795   1.316       .  A
C790        C791   1.401       .  A
C790        H801   1.081       .  S
C791        C800   1.362       .  A
C791        C792   1.380       .  A
C792        C793   1.406       .  A
C792        O798   1.320       .  A
C793        C794   1.405       .  A
C793        H802   1.081       .  S
C794        C797   1.367       .  A
O795        C796   1.331       .  A
C796        C797   1.392       .  A
C797        H803   1.082       .  S
O798        C799   1.332       .  A
C799        C800   1.391       .  A
C800        H804   1.082       .  S
C805        C810   1.380       .  A
C805        C806   1.403       .  A
C805        O811   1.320       .  A
C806        C807   1.403       .  A
C806        H817   1.082       .  S
C807        C816   1.361       .  A
C807        C808   1.380       .  A
C808        C809   1.408       .  A
C808        O814   1.324       .  A
C809        C810   1.407       .  A
C809        H818   1.082       .  S
C810        C813   1.365       .  A
O811        C812   1.330       .  A
C812        C813   1.394       .  A
C813        H819   1.082       .  S
O814        C815   1.334       .  A
C815        C816   1.392       .  A
C816        H820   1.082       .  S
C821        C826   1.380       .  A
C821        C822   1.403       .  A
C821        O827   1.318       .  A
C822        C823   1.402       .  A
C822        H833   1.081       .  S
C823        C832   1.363       .  A
C823        C824   1.380       .  A
C824        C825   1.408       .  A
C824        O830   1.322       .  A
C825        C826   1.407       .  A
C825        H834   1.081       .  S
C826        C829   1.368       .  A
O827        C828   1.331       .  A
C828        C829   1.394       .  A
C829        H835   1.082       .  S
O830        C831   1.334       .  A
C831        C832   1.391       .  A
C832        H836   1.082       .  S
C837        C842   1.379       .  A
C837        C838   1.401       .  A
C837        O843   1.312       .  A
C838        C839   1.398       .  A
C838        H849   1.082       .  S
C839        C848   1.362       .  A
C839        C840   1.377       .  A
C840        C841   1.412       .  A
C840        O846   1.320       .  A
C841        C842   1.409       .  A
C841        H850   1.082       .  S
C842        C845   1.376       .  A
O843        C844   1.331       .  A
C844        C845   1.395       .  A
C845        H851   1.082       .  S
O846        C847   1.337       .  A
C847        C848   1.393       .  A
C848        H852   1.081       .  S
C853        C858   1.380       .  A
C853        C854   1.402       .  A
C853        O859   1.315       .  A
C854        C855   1.400       .  A
C854        H865   1.081       .  S
C855        C864   1.362       .  A
C855        C856   1.380       .  A
C856        C857   1.408       .  A
C856        O862   1.320       .  A
C857        C858   1.407       .  A
C857        H866   1.082       .  S
C858        C861   1.369       .  A
O859        C860   1.330       .  A
C860        C861   1.394       .  A
C861        H867   1.082       .  S
O862        C863   1.334       .  A
C863        C864   1.389       .  A
C864        H868   1.082       .  S
C869        C874   1.377       .  A
C869        C870   1.409       .  A
C869        O875   1.315       .  A
C870        C871   1.404       .  A
C870        H881   1.082       .  S
C871        C880   1.374       .  A
C871        C872   1.379       .  A
C872        C873   1.405       .  A
C872        O878   1.312       .  A
C873        C874   1.400       .  A
C873        H882   1.082       .  S
C874        C877   1.369       .  A
O875        C876   1.336       .  A
C876        C877   1.394       .  A
C877        H883   1.082       .  S
O878        C879   1.333       .  A
C879        C880   1.392       .  A
C880        H884   1.082       .  S
C885        C890   1.377       .  A
C885        C886   1.410       .  A
C885        O891   1.316       .  A
C886        C887   1.405       .  A
C886        H897   1.082       .  S
C887        C896   1.375       .  A
C887        C888   1.379       .  A
C888        C889   1.404       .  A
C888        O894   1.312       .  A
C889        C890   1.400       .  A
C889        H898   1.082       .  S
C890        C893   1.367       .  A
O891        C892   1.337       .  A
C892        C893   1.394       .  A
C893        H899   1.081       .  S
O894        C895   1.332       .  A
C895        C896   1.394       .  A
C896        H900   1.082       .  S
C901        C906   1.380       .  A
C901        C902   1.399       .  A
C901        O907   1.322       .  A
C902        C903   1.402       .  A
C902        H913   1.082       .  S
C903        C912   1.352       .  A
C903        C904   1.380       .  A
C904        C905   1.408       .  A
C904        O910   1.329       .  A
C905        C906   1.411       .  A
C905        H914   1.082       .  S
C906        C909   1.362       .  A
O907        C908   1.330       .  A
C908        C909   1.399       .  A
C909        H915   1.082       .  S
O910        C911   1.334       .  A
C911        C912   1.392       .  A
C912        H916   1.083       .  S
C917        C922   1.380       .  A
C917        C918   1.403       .  A
C917        O923   1.316       .  A
C918        C919   1.401       .  A
C918        H929   1.082       .  S
C919        C928   1.363       .  A
C919        C920   1.380       .  A
C920        C921   1.405       .  A
C920        O926   1.317       .  A
C921        C922   1.403       .  A
C921        H930   1.082       .  S
C922        C925   1.364       .  A
O923        C924   1.330       .  A
C924        C925   1.390       .  A
C925        H931   1.082       .  S
O926        C927   1.331       .  A
C927        C928   1.390       .  A
C928        H932   1.082       .  S
C933        C938   1.377       .  A
C933        C934   1.411       .  A
C933        O939   1.318       .  A
C934        C935   1.407       .  A
C934        H945   1.082       .  S
C935        C944   1.377       .  A
C935        C936   1.379       .  A
C936        C937   1.400       .  A
C936        O942   1.308       .  A
C937        C938   1.395       .  A
C937        H946   1.083       .  S
C938        C941   1.362       .  A
O939        C940   1.337       .  A
C940        C941   1.392       .  A
C941        H947   1.082       .  S
O942        C943   1.330       .  A
C943        C944   1.395       .  A
C944        H948   1.082       .  S
C949        C954   1.380       .  A
C949        C950   1.403       .  A
C949        O955   1.317       .  A
C950        C951   1.401       .  A
C950        H961   1.081       .  S
C951        C960   1.362       .  A
C951        C952   1.381       .  A
C952        C953   1.403       .  A
C952        O958   1.316       .  A
C953        C954   1.402       .  A
C953        H962   1.081       .  S
C954        C957   1.363       .  A
O955        C956   1.331       .  A
C956        C957   1.392       .  A
C957        H963   1.082       .  S
O958        C959   1.330       .  A
C959        C960   1.389       .  A
C960        H964   1.082       .  S
C965        C970   1.380       .  A
C965        C966   1.406       .  A
C965        O971   1.327       .  A
C966        C967   1.408       .  A
C966        H977   1.081       .  S
C967        C976   1.360       .  A
C967        C968   1.379       .  A
C968        C969   1.399       .  A
C968        O974   1.320       .  A
C969        C970   1.402       .  A
C969        H978   1.082       .  S
C970        C973   1.352       .  A
O971        C972   1.333       .  A
C972        C973   1.393       .  A
C973        H979   1.082       .  S
O974        C975   1.331       .  A
C975        C976   1.400       .  A
C976        H980   1.081       .  S
C981        C986   1.380       .  A
C981        C982   1.401       .  A
C981        O987   1.316       .  A
C982        C983   1.400       .  A
C982        H993   1.082       .  S
C983        C992   1.360       .  A
C983        C984   1.380       .  A
C984        C985   1.407       .  A
C984        O990   1.321       .  A
C985        C986   1.406       .  A
C985        H994   1.082       .  S
C986        C989   1.366       .  A
O987        C988   1.330       .  A
C988        C989   1.392       .  A
C989        H995   1.082       .  S
O990        C991   1.333       .  A
C991        C992   1.390       .  A
C992        H996   1.082       .  S
C997       C1002   1.379       .  A
C997        C998   1.404       .  A
C997       O1003   1.312       .  A
C998        C999   1.399       .  A
C998       H1009   1.083       .  S
C999       C1008   1.366       .  A
C999       C1000   1.378       .  A
C1000      C1001   1.411       .  A
C1000      O1006   1.319       .  A
C1001      C1002   1.408       .  A
C1001      H1010   1.082       .  S
C1002      C1005   1.377       .  A
O1003      C1004   1.332       .  A
C1004      C1005   1.395       .  A
C1005      H1011   1.082       .  S
O1006      C1007   1.336       .  A
C1007      C1008   1.391       .  A
C1008      H1012   1.082       .  S
C1013      C1018   1.380       .  A
C1013      C1014   1.405       .  A
C1013      O1019   1.318       .  A
C1014      C1015   1.403       .  A
C1014      H1025   1.081       .  S
C1015      C1024   1.366       .  A
C1015      C1016   1.379       .  A
C1016      C1017   1.406       .  A
C1016      O1022   1.317       .  A
C1017      C1018   1.403       .  A
C1017      H1026   1.082       .  S
C1018      C1021   1.365       .  A
O1019      C1020   1.331       .  A
C1020      C1021   1.392       .  A
C1021      H1027   1.082       .  S
O1022      C1023   1.333       .  A
C1023      C1024   1.391       .  A
C1024      H1028   1.082       .  S
C1029      C1034   1.380       .  A
C1029      C1030   1.408       .  A
C1029      O1035   1.325       .  A
C1030      C1031   1.408       .  A
C1030      H1041   1.082       .  S
C1031      C1040   1.365       .  A
C1031      C1032   1.380       .  A
C1032      C1033   1.405       .  A
C1032      O1038   1.322       .  A
C1033      C1034   1.405       .  A
C1033      H1042   1.082       .  S
C1034      C1037   1.362       .  A
O1035      C1036   1.333       .  A
C1036      C1037   1.392       .  A
C1037      H1043   1.082       .  S
O1038      C1039   1.332       .  A
C1039      C1040   1.395       .  A
C1040      H1044   1.082       .  S
C1045      C1050   1.380       .  A
C1045      C1046   1.409       .  A
C1045      O1051   1.322       .  A
C1046      C1047   1.407       .  A
C1046      H1057   1.082       .  S
C1047      C1056   1.370       .  A
C1047      C1048   1.380       .  A
C1048      C1049   1.401       .  A
C1048      O1054   1.315       .  A
C1049      C1050   1.399       .  A
C1049      H1058   1.082       .  S
C1050      C1053   1.361       .  A
O1051      C1052   1.334       .  A
C1052      C1053   1.389       .  A
C1053      H1059   1.082       .  S
O1054      C1055   1.330       .  A
C1055      C1056   1.394       .  A
C1056      H1060   1.082       .  S
C1061      C1066   1.380       .  A
C1061      C1062   1.406       .  A
C1061      O1067   1.320       .  A
C1062      C1063   1.405       .  A
C1062      H1073   1.082       .  S
C1063      C1072   1.367       .  A
C1063      C1064   1.380       .  A
C1064      C1065   1.405       .  A
C1064      O1070   1.318       .  A
C1065      C1066   1.403       .  A
C1065      H1074   1.082       .  S
C1066      C1069   1.364       .  A
O1067      C1068   1.332       .  A
C1068      C1069   1.393       .  A
C1069      H1075   1.082       .  S
O1070      C1071   1.332       .  A
C1071      C1072   1.392       .  A
C1072      H1076   1.082       .  S
C1077      C1082   1.380       .  A
C1077      C1078   1.405       .  A
C1077      O1083   1.320       .  A
C1078      C1079   1.404       .  A
C1078      H1089   1.082       .  S
C1079      C1088   1.364       .  A
C1079      C1080   1.380       .  A
C1080      C1081   1.404       .  A
C1080      O1086   1.319       .  A
C1081      C1082   1.403       .  A
C1081      H1090   1.082       .  S
C1082      C1085   1.362       .  A
O1083      C1084   1.332       .  A
C1084      C1085   1.392       .  A
C1085      H1091   1.082       .  S
O1086      C1087   1.330       .  A
C1087      C1088   1.390       .  A
C1088      H1092   1.082       .  S
C1093      C1098   1.380       .  A
C1093      C1094   1.406       .  A
C1093      O1099   1.326       .  A
C1094      C1095   1.407       .  A
C1094      H1105   1.082       .  S
C1095      C1104   1.360       .  A
C1095      C1096   1.379       .  A
C1096      C1097   1.400       .  A
C1096      O1102   1.320       .  A
C1097      C1098   1.402       .  A
C1097      H1106   1.082       .  S
C1098      C1101   1.354       .  A
O1099      C1100   1.332       .  A
C1100      C1101   1.393       .  A
C1101      H1107   1.083       .  S
O1102      C1103   1.331       .  A
C1103      C1104   1.398       .  A
C1104      H1108   1.081       .  S
C1109      C1114   1.380       .  A
C1109      C1110   1.400       .  A
C1109      O1115   1.316       .  A
C1110      C1111   1.399       .  A
C1110      H1121   1.081       .  S
C1111      C1120   1.357       .  A
C1111      C1112   1.380       .  A
C1112      C1113   1.408       .  A
C1112      O1118   1.323       .  A
C1113      C1114   1.408       .  A
C1113      H1122   1.081       .  S
C1114      C1117   1.367       .  A
O1115      C1116   1.329       .  A
C1116      C1117   1.395       .  A
C1117      H1123   1.082       .  S
O1118      C1119   1.333       .  A
C1119      C1120   1.388       .  A
C1120      H1124   1.082       .  S
C1125      C1130   1.380       .  A
C1125      C1126   1.403       .  A
C1125      O1131   1.317       .  A
C1126      C1127   1.402       .  A
C1126      H1137   1.082       .  S
C1127      C1136   1.362       .  A
C1127      C1128   1.380       .  A
C1128      C1129   1.404       .  A
C1128      O1134   1.318       .  A
C1129      C1130   1.403       .  A
C1129      H1138   1.082       .  S
C1130      C1133   1.363       .  A
O1131      C1132   1.331       .  A
C1132      C1133   1.391       .  A
C1133      H1139   1.082       .  S
O1134      C1135   1.331       .  A
C1135      C1136   1.392       .  A
C1136      H1140   1.082       .  S
C1141      C1146   1.379       .  A
C1141      C1142   1.407       .  A
C1141      O1147   1.319       .  A
C1142      C1143   1.405       .  A
C1142      H1153   1.082       .  S
C1143      C1152   1.368       .  A
C1143      C1144   1.380       .  A
C1144      C1145   1.405       .  A
C1144      O1150   1.318       .  A
C1145      C1146   1.403       .  A
C1145      H1154   1.082       .  S
C1146      C1149   1.364       .  A
O1147      C1148   1.333       .  A
C1148      C1149   1.391       .  A
C1149      H1155   1.082       .  S
O1150      C1151   1.332       .  A
C1151      C1152   1.393       .  A
C1152      H1156   1.082       .  S
C1157      C1162   1.380       .  A
C1157      C1158   1.400       .  A
C1157      O1163   1.311       .  A
C1158      C1159   1.397       .  A
C1158      H1169   1.082       .  S
C1159      C1168   1.359       .  A
C1159      C1160   1.378       .  A
C1160      C1161   1.408       .  A
C1160      O1166   1.318       .  A
C1161      C1162   1.405       .  A
C1161      H1170   1.082       .  S
C1162      C1165   1.371       .  A
O1163      C1164   1.329       .  A
C1164      C1165   1.393       .  A
C1165      H1171   1.082       .  S
O1166      C1167   1.335       .  A
C1167      C1168   1.393       .  A
C1168      H1172   1.081       .  S
C1173      C1178   1.380       .  A
C1173      C1174   1.406       .  A
C1173      O1179   1.318       .  A
C1174      C1175   1.404       .  A
C1174      H1185   1.081       .  S
C1175      C1184   1.367       .  A
C1175      C1176   1.380       .  A
C1176      C1177   1.405       .  A
C1176      O1182   1.318       .  A
C1177      C1178   1.403       .  A
C1177      H1186   1.081       .  S
C1178      C1181   1.366       .  A
O1179      C1180   1.332       .  A
C1180      C1181   1.391       .  A
C1181      H1187   1.082       .  S
O1182      C1183   1.331       .  A
C1183      C1184   1.392       .  A
C1184      H1188   1.082       .  S
C1189      C1194   1.380       .  A
C1189      C1190   1.403       .  A
C1189      O1195   1.318       .  A
C1190      C1191   1.403       .  A
C1190      H1201   1.082       .  S
C1191      C1200   1.362       .  A
C1191      C1192   1.380       .  A
C1192      C1193   1.407       .  A
C1192      O1198   1.321       .  A
C1193      C1194   1.406       .  A
C1193      H1202   1.082       .  S
C1194      C1197   1.366       .  A
O1195      C1196   1.331       .  A
C1196      C1197   1.392       .  A
C1197      H1203   1.082       .  S
O1198      C1199   1.333       .  A
C1199      C1200   1.392       .  A
C1200      H1204   1.082       .  S
C1205      C1210   1.380       .  A
C1205      C1206   1.404       .  A
C1205      O1211   1.319       .  A
C1206      C1207   1.403       .  A
C1206      H1217   1.082       .  S
C1207      C1216   1.364       .  A
C1207      C1208   1.380       .  A
C1208      C1209   1.405       .  A
C1208      O1214   1.319       .  A
C1209      C1210   1.404       .  A
C1209      H1218   1.082       .  S
C1210      C1213   1.365       .  A
O1211      C1212   1.332       .  A
C1212      C1213   1.392       .  A
C1213      H1219   1.082       .  S
O1214      C1215   1.332       .  A
C1215      C1216   1.391       .  A
C1216      H1220   1.082       .  S
C1221      C1226   1.378       .  A
C1221      C1222   1.408       .  A
C1221      O1227   1.318       .  A
C1222      C1223   1.405       .  A
C1222      H1233   1.082       .  S
C1223      C1232   1.371       .  A
C1223      C1224   1.380       .  A
C1224      C1225   1.403       .  A
C1224      O1230   1.313       .  A
C1225      C1226   1.400       .  A
C1225      H1234   1.083       .  S
C1226      C1229   1.363       .  A
O1227      C1228   1.335       .  A
C1228      C1229   1.395       .  A
C1229      H1235   1.081       .  S
O1230      C1231   1.331       .  A
C1231      C1232   1.393       .  A
C1232      H1236   1.082       .  S
C1237      C1242   1.379       .  A
C1237      C1238   1.411       .  A
C1237      O1243   1.325       .  A
C1238      C1239   1.410       .  A
C1238      H1249   1.081       .  S
C1239      C1248   1.370       .  A
C1239      C1240   1.379       .  A
C1240      C1241   1.404       .  A
C1240      O1246   1.320       .  A
C1241      C1242   1.403       .  A
C1241      H1250   1.081       .  S
C1242      C1245   1.363       .  A
O1243      C1244   1.335       .  A
C1244      C1245   1.390       .  A
C1245      H1251   1.082       .  S
O1246      C1247   1.332       .  A
C1247      C1248   1.397       .  A
C1248      H1252   1.082       .  S
C1253      C1258   1.380       .  A
C1253      C1254   1.405       .  A
C1253      O1259   1.320       .  A
C1254      C1255   1.404       .  A
C1254      H1265   1.081       .  S
C1255      C1264   1.364       .  A
C1255      C1256   1.380       .  A
C1256      C1257   1.405       .  A
C1256      O1262   1.319       .  A
C1257      C1258   1.404       .  A
C1257      H1266   1.081       .  S
C1258      C1261   1.364       .  A
O1259      C1260   1.332       .  A
C1260      C1261   1.393       .  A
C1261      H1267   1.082       .  S
O1262      C1263   1.332       .  A
C1263      C1264   1.391       .  A
C1264      H1268   1.082       .  S
C1269      C1274   1.379       .  A
C1269      C1270   1.400       .  A
C1269      O1275   1.321       .  A
C1270      C1271   1.402       .  A
C1270      H1281   1.082       .  S
C1271      C1280   1.352       .  A
C1271      C1272   1.381       .  A
C1272      C1273   1.403       .  A
C1272      O1278   1.325       .  A
C1273      C1274   1.406       .  A
C1273      H1282   1.081       .  S
C1274      C1277   1.356       .  A
O1275      C1276   1.331       .  A
C1276      C1277   1.399       .  A
C1277      H1283   1.080       .  S
O1278      C1279   1.331       .  A
C1279      C1280   1.393       .  A
C1280      H1284   1.082       .  S
C1285      C1290   1.379       .  A
C1285      C1286   1.401       .  A
C1285      O1291   1.309       .  A
C1286      C1287   1.396       .  A
C1286      H1297   1.083       .  S
C1287      C1296   1.362       .  A
C1287      C1288   1.377       .  A
C1288      C1289   1.411       .  A
C1288      O1294   1.318       .  A
C1289      C1290   1.407       .  A
C1289      H1298   1.082       .  S
C1290      C1293   1.375       .  A
O1291      C1292   1.330       .  A
C1292      C1293   1.395       .  A
C1293      H1299   1.082       .  S
O1294      C1295   1.336       .  A
C1295      C1296   1.392       .  A
C1296      H1300   1.082       .  S
C1301      C1306   1.379       .  A
C1301      C1302   1.402       .  A
C1301      O1307   1.310       .  A
C1302      C1303   1.398       .  A
C1302      H1313   1.083       .  S
C1303      C1312   1.364       .  A
C1303      C1304   1.378       .  A
C1304      C1305   1.408       .  A
C1304      O1310   1.316       .  A
C1305      C1306   1.404       .  A
C1305      H1314   1.082       .  S
C1306      C1309   1.373       .  A
O1307      C1308   1.331       .  A
C1308      C1309   1.393       .  A
C1309      H1315   1.082       .  S
O1310      C1311   1.335       .  A
C1311      C1312   1.393       .  A
C1312      H1316   1.082       .  S
C1317      C1322   1.379       .  A
C1317      C1318   1.406       .  A
C1317      O1323   1.317       .  A
C1318      C1319   1.403       .  A
C1318      H1329   1.081       .  S
C1319      C1328   1.367       .  A
C1319      C1320   1.379       .  A
C1320      C1321   1.406       .  A
C1320      O1326   1.317       .  A
C1321      C1322   1.403       .  A
C1321      H1330   1.081       .  S
C1322      C1325   1.367       .  A
O1323      C1324   1.332       .  A
C1324      C1325   1.391       .  A
C1325      H1331   1.082       .  S
O1326      C1327   1.332       .  A
C1327      C1328   1.392       .  A
C1328      H1332   1.082       .  S
C1333      C1338   1.378       .  A
C1333      C1334   1.410       .  A
C1333      O1339   1.318       .  A
C1334      C1335   1.407       .  A
C1334      H1345   1.082       .  S
C1335      C1344   1.375       .  A
C1335      C1336   1.379       .  A
C1336      C1337   1.401       .  A
C1336      O1342   1.311       .  A
C1337      C1338   1.397       .  A
C1337      H1346   1.083       .  S
C1338      C1341   1.363       .  A
O1339      C1340   1.336       .  A
C1340      C1341   1.391       .  A
C1341      H1347   1.082       .  S
O1342      C1343   1.330       .  A
C1343      C1344   1.394       .  A
C1344      H1348   1.082       .  S
C1349      C1354   1.379       .  A
C1349      C1350   1.404       .  A
C1349      O1355   1.317       .  A
C1350      C1351   1.402       .  A
C1350      H1361   1.082       .  S
C1351      C1360   1.365       .  A
C1351      C1352   1.379       .  A
C1352      C1353   1.408       .  A
C1352      O1358   1.320       .  A
C1353      C1354   1.406       .  A
C1353      H1362   1.082       .  S
C1354      C1357   1.368       .  A
O1355      C1356   1.332       .  A
C1356      C1357   1.393       .  A
C1357      H1363   1.082       .  S
O1358      C1359   1.333       .  A
C1359      C1360   1.392       .  A
C1360      H1364   1.082       .  S
C1365      C1370   1.380       .  A
C1365      C1366   1.405       .  A
C1365      O1371   1.317       .  A
C1366      C1367   1.403       .  A
C1366      H1377   1.081       .  S
C1367      C1376   1.365       .  A
C1367      C1368   1.380       .  A
C1368      C1369   1.405       .  A
C1368      O1374   1.317       .  A
C1369      C1370   1.402       .  A
C1369      H1378   1.081       .  S
C1370      C1373   1.365       .  A
O1371      C1372   1.331       .  A
C1372      C1373   1.391       .  A
C1373      H1379   1.082       .  S
O1374      C1375   1.332       .  A
C1375      C1376   1.391       .  A
C1376      H1380   1.082       .  S
C1381      C1386   1.380       .  A
C1381      C1382   1.403       .  A
C1381      O1387   1.318       .  A
C1382      C1383   1.402       .  A
C1382      H1393   1.082       .  S
C1383      C1392   1.362       .  A
C1383      C1384   1.380       .  A
C1384      C1385   1.404       .  A
C1384      O1390   1.318       .  A
C1385      C1386   1.403       .  A
C1385      H1394   1.082       .  S
C1386      C1389   1.363       .  A
O1387      C1388   1.330       .  A
C1388      C1389   1.390       .  A
C1389      H1395   1.082       .  S
O1390      C1391   1.331       .  A
C1391      C1392   1.392       .  A
C1392      H1396   1.082       .  S
C1397      C1402   1.379       .  A
C1397      C1398   1.399       .  A
C1397      O1403   1.310       .  A
C1398      C1399   1.396       .  A
C1398      H1409   1.083       .  S
C1399      C1408   1.360       .  A
C1399      C1400   1.377       .  A
C1400      C1401   1.412       .  A
C1400      O1406   1.321       .  A
C1401      C1402   1.409       .  A
C1401      H1410   1.082       .  S
C1402      C1405   1.376       .  A
O1403      C1404   1.329       .  A
C1404      C1405   1.396       .  A
C1405      H1411   1.082       .  S
O1406      C1407   1.338       .  A
C1407      C1408   1.391       .  A
C1408      H1412   1.081       .  S
C1413      C1418   1.377       .  A
C1413      C1414   1.411       .  A
C1413      O1419   1.318       .  A
C1414      C1415   1.407       .  A
C1414      H1425   1.082       .  S
C1415      C1424   1.375       .  A
C1415      C1416   1.379       .  A
C1416      C1417   1.401       .  A
C1416      O1422   1.310       .  A
C1417      C1418   1.396       .  A
C1417      H1426   1.083       .  S
C1418      C1421   1.362       .  A
O1419      C1420   1.337       .  A
C1420      C1421   1.392       .  A
C1421      H1427   1.081       .  S
O1422      C1423   1.330       .  A
C1423      C1424   1.395       .  A
C1424      H1428   1.082       .  S
C1429      C1434   1.380       .  A
C1429      C1430   1.404       .  A
C1429      O1435   1.321       .  A
C1430      C1431   1.405       .  A
C1430      H1441   1.082       .  S
C1431      C1440   1.360       .  A
C1431      C1432   1.380       .  A
C1432      C1433   1.403       .  A
C1432      O1438   1.321       .  A
C1433      C1434   1.403       .  A
C1433      H1442   1.082       .  S
C1434      C1437   1.360       .  A
O1435      C1436   1.332       .  A
C1436      C1437   1.392       .  A
C1437      H1443   1.082       .  S
O1438      C1439   1.331       .  A
C1439      C1440   1.394       .  A
C1440      H1444   1.082       .  S
