geometry optimzed in LAMMPS
_audit_creation_date              2020-11-30 
_audit_creation_method            'lammps2cif' 
_symmetry_space_group_name_H-M    'P1' 
_symmetry_Int_Tables_number       1 
_symmetry_cell_setting            triclinic 
loop_ 
_symmetry_equiv_pos_as_xyz 
  x,y,z 
_cell_length_a                    41.06191049 
_cell_length_b                    41.05497067325752 
_cell_length_c                    41.87231506347037 
_cell_angle_alpha                 89.96299897662685 
_cell_angle_beta                  90.04272740248244 
_cell_angle_gamma                 120.06796624059506 
loop_ 
_atom_site_label 
_atom_site_type_symbol 
_atom_site_fract_x 
_atom_site_fract_y 
_atom_site_fract_z 
_atom_site_charge 
O1          O  0.13400950  0.27349083  0.46490896    -0.82100
O2          O  0.20924626  0.30249001  0.47988093    -0.79100
C3          C  0.22797336  0.33027665  0.46158840     1.01400
O4          O  0.22667889  0.36016513  0.46476070    -0.79200
O5          O  0.19769324  0.40645255  0.47941950    -0.81800
C6          C  0.16979630  0.39721921  0.46121879     1.05900
O7          O  0.13994834  0.36598163  0.46455843    -0.74600
O8          O  0.09365726  0.29078976  0.47978896    -0.74800
C9          C  0.10278716  0.27207624  0.46161045     1.05900
O10         O  0.11495918  0.26274462  0.03167774    -0.82100
O11         O  0.19066314  0.29769455  0.04669963    -0.79100
C12         C  0.22418249  0.32401807  0.04988009     1.01400
O13         O  0.23767890  0.35236931  0.03161275    -0.79200
O14         O  0.20283399  0.39324810  0.04632348    -0.81800
C15         C  0.17653273  0.40043225  0.04943710     1.05900
O16         O  0.14816521  0.38545783  0.03120599    -0.74600
O17         O  0.10741030  0.30982067  0.04654174    -0.74700
C18         C  0.10016601  0.27631793  0.04986348     1.05800
Cr19       Cr  0.16260589  0.28798800  0.00578706     1.93700
Cr20       Cr  0.21235414  0.37453959  0.50553860     1.93200
Cr21       Cr  0.12581455  0.33766355  0.00553371     1.39100
O22         O  0.16694242  0.33341501  0.00565176    -1.19800
O23         O  0.38621368  0.23714864  0.46884496    -0.82100
O24         O  0.31029010  0.20330713  0.45375166    -0.79100
C25         C  0.27652203  0.17737937  0.45076300     1.01400
O26         O  0.26291395  0.14880079  0.46877880    -0.79200
O27         O  0.29670602  0.10665873  0.45395809    -0.81800
C28         C  0.32262575  0.09884611  0.45107279     1.05900
O29         O  0.35116522  0.11387498  0.46911598    -0.74600
O30         O  0.39329562  0.18977609  0.45394249    -0.74800
C31         C  0.40115777  0.22352666  0.45088013     1.05900
O32         O  0.36685024  0.22620038  0.03554187    -0.82100
O33         O  0.29193799  0.19846108  0.02050734    -0.79100
C34         C  0.27295651  0.17071321  0.03874544     1.01400
O35         O  0.27381952  0.14061634  0.03553777    -0.79200
O36         O  0.30153841  0.09337771  0.02076624    -0.81800
C37         C  0.32933770  0.10221186  0.03895675     1.05900
O38         O  0.35939646  0.13325317  0.03572077    -0.74600
O39         O  0.40666366  0.20821100  0.02069048    -0.74700
C40         C  0.39784635  0.22717124  0.03884404     1.05800
Cr41       Cr  0.33843372  0.21237868  0.49460656     1.93700
Cr42       Cr  0.28764915  0.12588171  0.49470302     1.93200
Cr43       Cr  0.37412267  0.16168300  0.49480645     1.39100
O44         O  0.33339651  0.16664348  0.49455193    -1.19800
C45         C  0.46567459  0.99981071  0.12264207     0.05600
C46         C  0.99996321  0.03456815  0.12287756     0.05600
C47         C  0.03470220  0.03509240  0.12277894     0.05600
C48         C  0.03514687  0.00082931  0.12269793     0.05600
C49         C  0.00088772  0.46607742  0.12247971     0.05600
C50         C  0.46616409  0.46558280  0.12261245     0.05600
C51         C  0.32950386  0.02558527  0.10155468     0.83500
N52         N  0.36215045  0.02473202  0.10229336    -0.74800
C53         C  0.36543188  0.99966513  0.12121766     0.85900
N54         N  0.33588438  0.47535310  0.13954289    -0.74800
C55         C  0.30303987  0.47589375  0.13895832     0.86000
N56         N  0.29984145  0.00107283  0.11990675    -0.76500
C57         C  0.17344541  0.47636681  0.11049297     0.83500
N58         N  0.14045852  0.47651694  0.10891268    -0.74800
C59         C  0.13545977  0.00148467  0.12638826     0.85900
N60         N  0.16357107  0.02641625  0.14559573    -0.74800
C61         C  0.19668805  0.02655027  0.14732537     0.86000
N62         N  0.20165671  0.00146888  0.12971060    -0.76500
C63         C  0.19678048  0.17112392  0.10163236     0.83500
N64         N  0.16321004  0.13849759  0.10251444    -0.74800
C65         C  0.13498116  0.13532040  0.12149592     0.85900
N66         N  0.14035546  0.16498274  0.13970264    -0.74800
C67         C  0.17380753  0.19782095  0.13899065     0.86000
N68         N  0.20212454  0.20089801  0.11990832    -0.76500
C69         C  0.47393193  0.17011616  0.14779231     0.83500
N70         N  0.47414243  0.13716611  0.14603750    -0.74800
C71         C  0.99922403  0.13418748  0.12692747     0.85900
N72         N  0.02422388  0.16430261  0.10951140    -0.74800
C73         C  0.02430371  0.19740371  0.11111352     0.86000
N74         N  0.99908061  0.20032873  0.13028354    -0.76500
C75         C  0.33056826  0.30372086  0.14734748     0.83500
N76         N  0.36356860  0.33689213  0.14552665    -0.74800
C77         C  0.36657253  0.36501673  0.12644031     0.85900
N78         N  0.33642809  0.35996833  0.10913341    -0.74800
C79         C  0.30328122  0.32694497  0.11080181     0.86000
N80         N  0.30032993  0.29872350  0.12994087    -0.76500
C81         C  0.02449207  0.32717658  0.13867936     0.83500
N82         N  0.02518999  0.36064692  0.13918507    -0.74800
C83         C  0.00083699  0.36587932  0.12091738     0.85900
N84         N  0.47562922  0.33747831  0.10209272    -0.74800
C85         C  0.47460610  0.30389228  0.10142950     0.86000
N86         N  0.99910018  0.29870838  0.11975819    -0.76500
O87         O  0.26280162  0.11397633  0.28057103    -0.82100
O88         O  0.29680614  0.18989238  0.29554827    -0.79100
C89         C  0.32288213  0.22355165  0.29880780     1.01400
O90         O  0.35153311  0.23718158  0.28086422    -0.79200
O91         O  0.39339538  0.20313685  0.29587586    -0.81800
C92         C  0.40099428  0.17708829  0.29902629     1.05900
O93         O  0.38601211  0.14856241  0.28094551    -0.74600
O94         O  0.31000590  0.10674889  0.29578062    -0.74800
C95         C  0.27631562  0.09907941  0.29878098     1.05900
O96         O  0.27422856  0.13347084  0.21381387    -0.82100
O97         O  0.30214024  0.20837453  0.22872077    -0.79100
C98         C  0.33004764  0.22729266  0.21062153     1.01400
O99         O  0.36001641  0.22626750  0.21406836    -0.79200
O100        O  0.40679253  0.19818125  0.22904352    -0.81800
C101        C  0.39783426  0.17034437  0.21086915     1.05900
O102        O  0.36678229  0.14032795  0.21416265    -0.74600
O103        O  0.29178336  0.09337825  0.22892742    -0.74700
C104        C  0.27307647  0.10239077  0.21060132     1.05800
Cr105      Cr  0.28788563  0.16180124  0.25471321     1.93700
Cr106      Cr  0.37441185  0.21230590  0.25499524     1.93200
Cr107      Cr  0.33827919  0.12577487  0.25498663     1.39100
O108        O  0.33353295  0.16663693  0.25504955    -1.19800
O109        O  0.22605482  0.36613959  0.28611517    -0.82100
O110        O  0.19757438  0.29119982  0.27116273    -0.79100
C111        C  0.16960977  0.27252131  0.28926486     1.01400
O112        O  0.13974188  0.27370978  0.28567492    -0.79200
O113        O  0.09364091  0.30254264  0.27071648    -0.81800
C114        C  0.10293773  0.33031851  0.28905522     1.05900
O115        O  0.13409043  0.36022082  0.28572379    -0.74600
O116        O  0.20913854  0.40667719  0.27089181    -0.74800
C117        C  0.22748108  0.39734561  0.28934449     1.05900
O118        O  0.23771530  0.38565981  0.21934190    -0.82100
O119        O  0.20318232  0.30982596  0.20432825    -0.79100
C120        C  0.17685382  0.27631459  0.20094899     1.01400
O121        O  0.14820156  0.26283262  0.21887081    -0.79200
O122        O  0.10712375  0.29759406  0.20384372    -0.81800
C123        C  0.09983526  0.32384844  0.20072100     1.05900
O124        O  0.11482599  0.35222600  0.21895140    -0.74600
O125        O  0.19077550  0.39328753  0.20405427    -0.74700
C126        C  0.22434513  0.40059879  0.20102768     1.05800
Cr127      Cr  0.21227795  0.33786816  0.24518496     1.93700
Cr128      Cr  0.12569391  0.28801762  0.24474729     1.93200
Cr129      Cr  0.16253806  0.37458558  0.24487175     1.39100
O130        O  0.16683134  0.33347333  0.24479974    -1.19800
C131        C  0.46547054  0.49979241  0.37446709     0.05600
C132        C  0.46537901  0.46523600  0.37428460     0.05600
C133        C  0.49985413  0.46519011  0.37423993     0.05600
C134        C  0.03444177  0.49971495  0.37437146     0.05600
C135        C  0.03451574  0.03425702  0.37454613     0.05600
C136        C  0.00003424  0.03430288  0.37452299     0.05600
C137        C  0.16986616  0.47324592  0.39753755     0.83500
N138        N  0.19992633  0.49781753  0.37954261    -0.74800
C139        C  0.19705130  0.02291806  0.36004288     0.85900
N140        N  0.16413544  0.02327821  0.35869749    -0.74800
C141        C  0.13420077  0.49888198  0.37663299     0.86000
N142        N  0.13716857  0.47395861  0.39599714    -0.76500
C143        C  0.32566631  0.02208422  0.39088894     0.83500
N144        N  0.29760788  0.49691156  0.37157219    -0.74800
C145        C  0.30313621  0.47258489  0.35338355     0.85900
N146        N  0.33669562  0.47359495  0.35454661    -0.74800
C147        C  0.36470185  0.49857725  0.37379727     0.86000
N148        N  0.35913240  0.02279194  0.39191727    -0.76500
C149        C  0.47707496  0.17392420  0.36031939     0.83500
N150        N  0.47662928  0.14060004  0.35891826    -0.74800
C151        C  0.50094890  0.13496192  0.37686150     0.85900
N152        N  0.02585843  0.16278187  0.39629180    -0.74800
C153        C  0.02664987  0.19622895  0.39788221     0.86000
N154        N  0.50217959  0.20183911  0.37985752    -0.76500
C155        C  0.16929271  0.19694532  0.35341717     0.83500
N156        N  0.19935015  0.20256622  0.37142953    -0.74800
C157        C  0.19666181  0.17451189  0.39065630     0.85900
N158        N  0.16392734  0.14097208  0.39174514    -0.74800
C159        C  0.13396483  0.13530420  0.37378600     0.86000
N160        N  0.13676527  0.16329652  0.35465136    -0.76500
C161        C  0.02753032  0.33036788  0.35302564     0.83500
N162        N  0.02638199  0.36285493  0.35408434    -0.74800
C163        C  0.50122914  0.36570075  0.37318621     0.85900
N164        N  0.47703092  0.33583925  0.39130971    -0.73600
C165        C  0.47786750  0.30314647  0.39039467     0.86000
N166        N  0.50317701  0.30040211  0.37118767    -0.76500
C167        C  0.30349914  0.32971003  0.39777513     0.83500
N168        N  0.29785817  0.29961925  0.37976341    -0.74800
C169        C  0.32571783  0.30250609  0.36015378     0.85900
N170        N  0.35901147  0.33545603  0.35867927    -0.74800
C171        C  0.36469469  0.36541964  0.37660790     0.86000
N172        N  0.33693189  0.36243593  0.39610524    -0.76500
C173        C  0.50029607  0.09948891  0.37546824    -0.10000
C174        C  0.50010098  0.06989575  0.37483106    -0.11600
C175        C  0.07008269  0.06981079  0.37475956    -0.10000
C176        C  0.09938046  0.09954888  0.37463884    -0.11600
C177        C  0.42977851  0.42969959  0.37449871    -0.10000
C178        C  0.40015960  0.40028492  0.37514790    -0.11600
C179        C  0.40033752  0.49956286  0.37460609    -0.10000
C180        C  0.42996334  0.49983378  0.37468416    -0.11600
C181        C  0.09935359  0.49947506  0.37527651    -0.10000
C182        C  0.06996157  0.49967406  0.37464330    -0.11600
C183        C  0.50014043  0.40030209  0.37397564    -0.10000
C184        C  0.49978628  0.42961925  0.37419475    -0.11600
C185        C  0.17170501  0.22599567  0.33231543    -0.10000
C186        C  0.17136992  0.24814834  0.31333476    -0.11600
C187        C  0.07669725  0.32833878  0.31306861    -0.10000
C188        C  0.05415854  0.32792326  0.33199563    -0.11600
C189        C  0.27402628  0.44608622  0.33227415    -0.10000
C190        C  0.25181447  0.42359500  0.31333948    -0.11600
C191        C  0.42818955  0.17998880  0.32262910    -0.10000
C192        C  0.45094660  0.17920111  0.34069730    -0.11600
C193        C  0.25195463  0.07189123  0.32235393    -0.10000
C194        C  0.22842081  0.04911328  0.34042015    -0.11600
C195        C  0.31984448  0.24773563  0.32240107    -0.10000
C196        C  0.32045731  0.27113479  0.34051686    -0.11600
C197        C  0.07299438  0.32133141  0.17697092    -0.10000
C198        C  0.05049004  0.32220800  0.15868537    -0.11600
C199        C  0.32818413  0.25187726  0.18682624    -0.10000
C200        C  0.32796105  0.27436203  0.16816173    -0.11600
C201        C  0.44716387  0.17266147  0.16856815    -0.10000
C202        C  0.42438859  0.17234241  0.18716820    -0.11600
C203        C  0.17959680  0.25213534  0.17722474    -0.10000
C204        C  0.17886316  0.22884713  0.15893717    -0.11600
C205        C  0.24855072  0.07587228  0.18684093    -0.10000
C206        C  0.22606144  0.05317391  0.16818031    -0.11600
C207        C  0.27209394  0.44989366  0.15898487    -0.10000
C208        C  0.24871416  0.42741116  0.17728678    -0.11600
C209        C  0.09950266  0.10044937  0.12234629    -0.10000
C210        C  0.07002099  0.07089597  0.12270778    -0.11600
C211        C  0.99931515  0.09915770  0.12513369    -0.10000
C212        C  0.99952049  0.06982140  0.12384764    -0.11600
C213        C  0.10037446  0.00145971  0.12466272    -0.10000
C214        C  0.07085536  0.00130117  0.12349380    -0.11600
C215        C  0.00143213  0.40132806  0.12165847    -0.10000
C216        C  0.00134926  0.43077699  0.12211616    -0.11600
C217        C  0.40160193  0.40019683  0.12464713    -0.10000
C218        C  0.43090823  0.42982446  0.12341395    -0.11600
C219        C  0.42989042  0.99930192  0.12241020    -0.10000
C220        C  0.40034071  0.99918201  0.12199030    -0.11600
C221        C  0.32048204  0.04832279  0.41028652    -0.10000
C222        C  0.31958574  0.07130219  0.42791036    -0.11600
C223        C  0.32679548  0.05249751  0.08102507    -0.10000
C224        C  0.32722291  0.07548330  0.06257334    -0.11600
C225        C  0.25208904  0.18050864  0.42753953    -0.10000
C226        C  0.22824233  0.17974423  0.40991816    -0.11600
C227        C  0.42867059  0.24791044  0.42759677    -0.10000
C228        C  0.45165196  0.27168488  0.40985319    -0.11600
C229        C  0.24853968  0.17299253  0.06243641    -0.10000
C230        C  0.22622409  0.17366616  0.08099402    -0.11600
C231        C  0.44757845  0.27426007  0.08095937    -0.10000
C232        C  0.42454729  0.25174770  0.06249865    -0.11600
C233        C  0.07626105  0.24745961  0.43780520    -0.10000
C234        C  0.05341265  0.22527268  0.41900504    -0.11600
C235        C  0.07345541  0.25220901  0.07369600    -0.10000
C236        C  0.05077798  0.22878048  0.09180093    -0.11600
C237        C  0.17165628  0.42367304  0.43737055    -0.10000
C238        C  0.17222110  0.44648613  0.41859455    -0.11600
C239        C  0.27452317  0.32742098  0.41894870    -0.10000
C240        C  0.25245035  0.32819571  0.43777371    -0.11600
C241        C  0.17825199  0.44990981  0.09113861    -0.10000
C242        C  0.17905304  0.42723090  0.07311017    -0.11600
C243        C  0.24839537  0.32146726  0.07362803    -0.10000
C244        C  0.27186305  0.32214653  0.09162909    -0.11600
O245        O  0.13405712  0.27352519  0.96490467    -0.82100
O246        O  0.20928977  0.30252282  0.97990795    -0.79100
C247        C  0.22801725  0.33030293  0.96161021     1.01400
O248        O  0.22671621  0.36018953  0.96476975    -0.79200
O249        O  0.19772227  0.40647720  0.97940555    -0.81800
C250        C  0.16982074  0.39724025  0.96120979     1.05900
O251        O  0.13997026  0.36600739  0.96455903    -0.74600
O252        O  0.09369385  0.29081321  0.97977890    -0.74800
C253        C  0.10283085  0.27210245  0.96160310     1.05900
O254        O  0.11494533  0.26272652  0.53169267    -0.82100
O255        O  0.19065450  0.29765692  0.54668485    -0.79100
C256        C  0.22417628  0.32397737  0.54985979     1.01400
O257        O  0.23766460  0.35233202  0.53159629    -0.79200
O258        O  0.20281196  0.39320178  0.54633035    -0.81800
C259        C  0.17652134  0.40040246  0.54943751     1.05900
O260        O  0.14815711  0.38543911  0.53120257    -0.74600
O261        O  0.10739603  0.30980713  0.54654655    -0.74700
C262        C  0.10016056  0.27630854  0.54987898     1.05800
Cr263      Cr  0.16257673  0.28795610  0.50578177     1.93700
Cr264      Cr  0.21237971  0.37457287  0.00553926     1.93200
Cr265      Cr  0.12579310  0.33764142  0.50553589     1.39100
O266        O  0.16691651  0.33338426  0.50565094    -1.19800
O267        O  0.38620264  0.23714595  0.96886976    -0.82100
O268        O  0.31027532  0.20330720  0.95378569    -0.79100
C269        C  0.27650653  0.17738036  0.95079877     1.01400
O270        O  0.26289945  0.14879871  0.96881012    -0.79200
O271        O  0.29667916  0.10664461  0.95397496    -0.81800
C272        C  0.32259967  0.09883309  0.95108115     1.05900
O273        O  0.35114640  0.11386745  0.96911602    -0.74600
O274        O  0.39328356  0.18977621  0.95395741    -0.74800
C275        C  0.40114683  0.22352821  0.95090035     1.05900
O276        O  0.36685213  0.22621357  0.53551617    -0.82100
O277        O  0.29194120  0.19846594  0.52047307    -0.79100
C278        C  0.27296400  0.17072017  0.53871489     1.01400
O279        O  0.27383099  0.14062539  0.53551109    -0.79200
O280        O  0.30156081  0.09339527  0.52075451    -0.81800
C281        C  0.32935651  0.10224152  0.53895371     1.05900
O282        O  0.35941179  0.13328478  0.53571633    -0.74600
O283        O  0.40667562  0.20823470  0.52067166    -0.74700
C284        C  0.39784963  0.22718879  0.53882448     1.05800
Cr285      Cr  0.33842532  0.21237146  0.99463568     1.93700
Cr286      Cr  0.28763228  0.12587272  0.99472474     1.93200
Cr287      Cr  0.37410720  0.16166801  0.99481702     1.39100
O288        O  0.33338296  0.16663278  0.99457241    -1.19800
C289        C  0.46568046  0.99982655  0.62263518     0.05600
C290        C  0.99997960  0.03457983  0.62287662     0.05600
C291        C  0.03471522  0.03509734  0.62278015     0.05600
C292        C  0.03515350  0.00083185  0.62269176     0.05600
C293        C  0.00088493  0.46606630  0.62246684     0.05600
C294        C  0.46615493  0.46557375  0.62261121     0.05600
C295        C  0.32953703  0.02565488  0.60158945     0.83500
N296        N  0.36217971  0.02479359  0.60232872    -0.74800
C297        C  0.36545599  0.99972553  0.62125615     0.85900
N298        N  0.33585443  0.47528073  0.63949659    -0.74800
C299        C  0.30300422  0.47581084  0.63891079     0.86000
N300        N  0.29987308  0.00114879  0.61994252    -0.76500
C301        C  0.17344959  0.47637052  0.61045386     0.83500
N302        N  0.14046469  0.47652290  0.60885931    -0.74800
C303        C  0.13545720  0.00146841  0.62643403     0.85900
N304        N  0.16357143  0.02640806  0.64563549    -0.74800
C305        C  0.19668978  0.02654386  0.64736592     0.86000
N306        N  0.20165701  0.00145779  0.62975647    -0.76500
C307        C  0.19680278  0.17111157  0.60163026     0.83500
N308        N  0.16322997  0.13848725  0.60250969    -0.74800
C309        C  0.13501014  0.13530462  0.62150675     0.85900
N310        N  0.14039528  0.16495824  0.63972994    -0.74800
C311        C  0.17384883  0.19779338  0.63902064     0.86000
N312        N  0.20215754  0.20087735  0.61992334    -0.76500
C313        C  0.47396595  0.17013403  0.64780866     0.83500
N314        N  0.47417636  0.13718445  0.64605517    -0.74800
C315        C  0.99924495  0.13419805  0.62695659     0.85900
N316        N  0.02425333  0.16431826  0.60955091    -0.74800
C317        C  0.02432994  0.19741728  0.61115309     0.86000
N318        N  0.99909561  0.20033578  0.63031204    -0.76500
C319        C  0.33057383  0.30371550  0.64736333     0.83500
N320        N  0.36356377  0.33689653  0.64554821    -0.74800
C321        C  0.36656138  0.36501213  0.62645420     0.85900
N322        N  0.33641982  0.35994578  0.60913235    -0.74800
C323        C  0.30328111  0.32691278  0.61079345     0.86000
N324        N  0.30033684  0.29869888  0.62994123    -0.76500
C325        C  0.02445351  0.32712895  0.63870845     0.83500
N326        N  0.02516079  0.36060476  0.63922638    -0.74800
C327        C  0.00081645  0.36585380  0.62095985     0.85900
N328        N  0.47560057  0.33746227  0.60213174    -0.74800
C329        C  0.47457183  0.30387378  0.60145596     0.86000
N330        N  0.99906287  0.29867436  0.61977613    -0.76500
O331        O  0.26283332  0.11398221  0.78058405    -0.82100
O332        O  0.29684796  0.18989506  0.79557141    -0.79100
C333        C  0.32292532  0.22355258  0.79883566     1.01400
O334        O  0.35157910  0.23718375  0.78089537    -0.79200
O335        O  0.39342864  0.20312535  0.79590175    -0.81800
C336        C  0.40102029  0.17707187  0.79905219     1.05900
O337        O  0.38603906  0.14854975  0.78096698    -0.74600
O338        O  0.31003010  0.10674369  0.79579500    -0.74800
C339        C  0.27634089  0.09907863  0.79879361     1.05900
O340        O  0.27426990  0.13348959  0.71382905    -0.82100
O341        O  0.30219009  0.20839223  0.72874690    -0.79100
C342        C  0.33009783  0.22731209  0.71064859     1.01400
O343        O  0.36006700  0.22628646  0.71409634    -0.79200
O344        O  0.40683084  0.19818166  0.72906905    -0.81800
C345        C  0.39786950  0.17034795  0.71089040     1.05900
O346        O  0.36681686  0.14033154  0.71418170    -0.74600
O347        O  0.29181348  0.09338753  0.72893961    -0.74700
C348        C  0.27310822  0.10240499  0.71061601     1.05800
Cr349      Cr  0.28792726  0.16181235  0.75473254     1.93700
Cr350      Cr  0.37445406  0.21230827  0.75502219     1.93200
Cr351      Cr  0.33830930  0.12577419  0.75500332     1.39100
O352        O  0.33357129  0.16664132  0.75506985    -1.19800
O353        O  0.22604820  0.36613720  0.78611272    -0.82100
O354        O  0.19758848  0.29119388  0.77118254    -0.79100
C355        C  0.16962325  0.27251191  0.78928231     1.01400
O356        O  0.13975130  0.27369131  0.78568892    -0.79200
O357        O  0.09363435  0.30250456  0.77072452    -0.81800
C358        C  0.10292152  0.33029296  0.78904722     1.05900
O359        O  0.13407155  0.36019825  0.78570678    -0.74600
O360        O  0.20912323  0.40665925  0.77086303    -0.74800
C361        C  0.22747113  0.39734350  0.78932453     1.05900
O362        O  0.23770383  0.38562671  0.71933310    -0.82100
O363        O  0.20319180  0.30979142  0.70434678    -0.79100
C364        C  0.17686899  0.27627711  0.70097321     1.01400
O365        O  0.14821036  0.26279639  0.71888840    -0.79200
O366        O  0.10710446  0.29753063  0.70385034    -0.81800
C367        C  0.09980923  0.32378013  0.70072079     1.05900
O368        O  0.11480485  0.35216704  0.71893943    -0.74600
O369        O  0.19075138  0.39322425  0.70402799    -0.74700
C370        C  0.22432326  0.40054125  0.70100305     1.05800
Cr371      Cr  0.21227755  0.33784802  0.74519189     1.93700
Cr372      Cr  0.12569206  0.28797890  0.74475772     1.93200
Cr373      Cr  0.16252022  0.37454541  0.74485237     1.39100
O374        O  0.16682380  0.33343925  0.74479957    -1.19800
C375        C  0.46547209  0.49980830  0.87446040     0.05600
C376        C  0.46538101  0.46525189  0.87428058     0.05600
C377        C  0.49985486  0.46520379  0.87425645     0.05600
C378        C  0.03444018  0.49972175  0.87439481     0.05600
C379        C  0.03451633  0.03424196  0.87451969     0.05600
C380        C  0.00003750  0.03429294  0.87451262     0.05600
C381        C  0.16986212  0.47323384  0.89751035     0.83500
N382        N  0.19991155  0.49780056  0.87950303    -0.74800
C383        C  0.19705715  0.02290889  0.86004145     0.85900
N384        N  0.16414120  0.02326829  0.85868465    -0.74800
C385        C  0.13418745  0.49886965  0.87662742     0.86000
N386        N  0.13716495  0.47394885  0.89598732    -0.76500
C387        C  0.32565210  0.02206564  0.89090483     0.83500
N388        N  0.29761830  0.49694942  0.87152324    -0.74800
C389        C  0.30314185  0.47261946  0.85333445     0.85900
N390        N  0.33669938  0.47362501  0.85449615    -0.74800
C391        C  0.36470908  0.49860737  0.87374440     0.86000
N392        N  0.35911982  0.02277613  0.89194454    -0.76500
C393        C  0.47708227  0.17390427  0.86036683     0.83500
N394        N  0.47663929  0.14058206  0.85896822    -0.74800
C395        C  0.50096064  0.13494801  0.87691178     0.85900
N396        N  0.02587619  0.16277811  0.89631297    -0.74800
C397        C  0.02667316  0.19622837  0.89789887     0.86000
N398        N  0.50218733  0.20182255  0.87990230    -0.76500
C399        C  0.16929663  0.19693495  0.85343168     0.83500
N400        N  0.19934308  0.20255892  0.87146015    -0.74800
C401        C  0.19664853  0.17450315  0.89068728     0.85900
N402        N  0.16391838  0.14095803  0.89176095    -0.74800
C403        C  0.13396647  0.13528729  0.87378470     0.86000
N404        N  0.13677350  0.16328157  0.85464934    -0.76500
C405        C  0.02749748  0.33035265  0.85300884     0.83500
N406        N  0.02635541  0.36284350  0.85407988    -0.74800
C407        C  0.50122201  0.36570477  0.87318844     0.85900
N408        N  0.47702386  0.33584675  0.89131613    -0.73600
C409        C  0.47785595  0.30315110  0.89040533     0.86000
N410        N  0.50316214  0.30040070  0.87119745    -0.76500
C411        C  0.30353160  0.32971146  0.89779589     0.83500
N412        N  0.29789171  0.29961554  0.87979166    -0.74800
C413        C  0.32574466  0.30250542  0.86017102     0.85900
N414        N  0.35902917  0.33546243  0.85867815    -0.74800
C415        C  0.36471022  0.36542992  0.87659926     0.86000
N416        N  0.33695546  0.36244380  0.89610754    -0.76500
C417        C  0.50031207  0.09947905  0.87551490    -0.10000
C418        C  0.50011346  0.06988553  0.87486579    -0.11600
C419        C  0.07008585  0.06979268  0.87473543    -0.10000
C420        C  0.09938472  0.09952947  0.87462315    -0.11600
C421        C  0.42978210  0.42971661  0.87447962    -0.10000
C422        C  0.40016738  0.40029930  0.87512677    -0.11600
C423        C  0.40034022  0.49958308  0.87455973    -0.10000
C424        C  0.42996439  0.49985010  0.87465326    -0.11600
C425        C  0.09934414  0.49946980  0.87529102    -0.10000
C426        C  0.06995694  0.49967738  0.87466690    -0.11600
C427        C  0.50013930  0.40031140  0.87397806    -0.10000
C428        C  0.49978653  0.42963048  0.87420329    -0.11600
C429        C  0.17171665  0.22598831  0.83233213    -0.10000
C430        C  0.17138606  0.24814305  0.81335264    -0.11600
C431        C  0.07667238  0.32832244  0.81305261    -0.10000
C432        C  0.05412840  0.32791045  0.83197482    -0.11600
C433        C  0.27402500  0.44611391  0.83223323    -0.10000
C434        C  0.25180811  0.42361117  0.81330787    -0.11600
C435        C  0.42820571  0.17996392  0.82266171    -0.10000
C436        C  0.45095691  0.17917792  0.84073809    -0.11600
C437        C  0.25197371  0.07188808  0.82236376    -0.10000
C438        C  0.22843499  0.04910802  0.84042646    -0.11600
C439        C  0.31988327  0.24773351  0.82242865    -0.10000
C440        C  0.32048833  0.27113071  0.84054186    -0.11600
C441        C  0.07295656  0.32125254  0.67697755    -0.10000
C442        C  0.05044907  0.32214228  0.65870361    -0.11600
C443        C  0.32822783  0.25189318  0.68685066    -0.10000
C444        C  0.32798286  0.27436544  0.66818282    -0.11600
C445        C  0.44719754  0.17267751  0.66858362    -0.10000
C446        C  0.42442129  0.17235115  0.68718584    -0.11600
C447        C  0.17962670  0.25209612  0.67726055    -0.10000
C448        C  0.17890628  0.22881364  0.65897444    -0.11600
C449        C  0.24857018  0.07588513  0.68686116    -0.10000
C450        C  0.22607026  0.05317997  0.66820999    -0.11600
C451        C  0.27206039  0.44980674  0.65893723    -0.10000
C452        C  0.24868381  0.42733388  0.67724665    -0.11600
C453        C  0.09952681  0.10044047  0.62235320    -0.10000
C454        C  0.07003795  0.07089531  0.62271412    -0.11600
C455        C  0.99933661  0.09916971  0.62515768    -0.10000
C456        C  0.99954274  0.06983483  0.62386113    -0.11600
C457        C  0.10037481  0.00144953  0.62469623    -0.10000
C458        C  0.07085857  0.00129596  0.62350840    -0.11600
C459        C  0.00142821  0.40131264  0.62169845    -0.10000
C460        C  0.00134892  0.43076488  0.62213446    -0.11600
C461        C  0.40158697  0.40019504  0.62465954    -0.10000
C462        C  0.43089698  0.42981834  0.62342257    -0.11600
C463        C  0.42989965  0.99932761  0.62242219    -0.10000
C464        C  0.40035649  0.99922300  0.62201825    -0.11600
C465        C  0.32045712  0.04830335  0.91029813    -0.10000
C466        C  0.31955530  0.07128435  0.92791855    -0.11600
C467        C  0.32682667  0.05255625  0.58104725    -0.10000
C468        C  0.32724503  0.07552655  0.56258263    -0.11600
C469        C  0.25207115  0.18051054  0.92758043    -0.10000
C470        C  0.22822197  0.17973927  0.90995927    -0.11600
C471        C  0.42865930  0.24791793  0.92761622    -0.10000
C472        C  0.45163962  0.27169274  0.90987017    -0.11600
C473        C  0.24854917  0.17299785  0.56240833    -0.10000
C474        C  0.22623731  0.17366249  0.58097542    -0.11600
C475        C  0.44755788  0.27425933  0.58096423    -0.10000
C476        C  0.42453945  0.25175880  0.56248875    -0.11600
C477        C  0.07630465  0.24747518  0.93780204    -0.10000
C478        C  0.05344827  0.22527914  0.91901105    -0.11600
C479        C  0.07346861  0.25221384  0.57372660    -0.10000
C480        C  0.05080150  0.22879314  0.59184107    -0.11600
C481        C  0.17167761  0.42368371  0.93735306    -0.10000
C482        C  0.17223190  0.44648508  0.91856989    -0.11600
C483        C  0.27456274  0.32742598  0.91897685    -0.10000
C484        C  0.25249623  0.32821301  0.93780199    -0.11600
C485        C  0.17825709  0.44990353  0.59111695    -0.10000
C486        C  0.17905324  0.42721232  0.57310182    -0.11600
C487        C  0.24839776  0.32142221  0.57360091    -0.10000
C488        C  0.27186411  0.32210069  0.59160610    -0.11600
O489        O  0.13406346  0.77353981  0.46490290    -0.82100
O490        O  0.20929040  0.80252387  0.47991587    -0.79100
C491        C  0.22802098  0.83030368  0.46161864     1.01400
O492        O  0.22672142  0.86019126  0.46477658    -0.79200
O493        O  0.19774084  0.90649022  0.47941930    -0.81800
C494        C  0.16984157  0.89726140  0.46122274     1.05900
O495        O  0.13998893  0.86602963  0.46456648    -0.74600
O496        O  0.09370347  0.79083435  0.47977282    -0.74800
C497        C  0.10284074  0.77212335  0.46159738     1.05900
O498        O  0.11496064  0.76273826  0.03168468    -0.82100
O499        O  0.19067013  0.79766976  0.04667730    -0.79100
C500        C  0.22419039  0.82399293  0.04985524     1.01400
O501        O  0.23767805  0.85234939  0.03159374    -0.79200
O502        O  0.20282323  0.89321753  0.04632349    -0.81800
C503        C  0.17653094  0.90041572  0.04943032     1.05900
O504        O  0.14816692  0.88545029  0.03119563    -0.74600
O505        O  0.10741248  0.80981828  0.04654269    -0.74700
C506        C  0.10017650  0.77631922  0.04987273     1.05800
Cr507      Cr  0.16259184  0.78796960  0.00577430     1.93700
Cr508      Cr  0.21238768  0.87457333  0.50554790     1.93200
Cr509      Cr  0.12580553  0.83765175  0.00553127     1.39100
O510        O  0.16693053  0.83339734  0.00564518    -1.19800
O511        O  0.38620834  0.73714344  0.46887295    -0.82100
O512        O  0.31028240  0.70330729  0.45378753    -0.79100
C513        C  0.27651328  0.67738136  0.45080042     1.01400
O514        O  0.26290591  0.64879843  0.46881015    -0.79200
O515        O  0.29668900  0.60664816  0.45397492    -0.81800
C516        C  0.32260872  0.59883529  0.45108462     1.05900
O517        O  0.35115216  0.61386593  0.46912263    -0.74600
O518        O  0.39328900  0.68977343  0.45396017    -0.74800
C519        C  0.40115152  0.72352533  0.45090304     1.05900
O520        O  0.36685728  0.72621328  0.03551828    -0.82100
O521        O  0.29194475  0.69847110  0.02047806    -0.79100
C522        C  0.27296001  0.67072150  0.03871435     1.01400
O523        O  0.27382365  0.64062502  0.03550710    -0.79200
O524        O  0.30155341  0.59339276  0.02074785    -0.81800
C525        C  0.32935011  0.60223287  0.03894454     1.05900
O526        O  0.35940726  0.63327518  0.03570826    -0.74600
O527        O  0.40667545  0.70822901  0.02067013    -0.74700
C528        C  0.39785457  0.72718702  0.03882298     1.05800
Cr529      Cr  0.33843141  0.71236996  0.49463780     1.93700
Cr530      Cr  0.28763817  0.62587196  0.49472430     1.93200
Cr531      Cr  0.37411247  0.66166657  0.49482043     1.39100
O532        O  0.33338864  0.66663165  0.49457410    -1.19800
C533        C  0.46568246  0.49982630  0.12265650     0.05600
C534        C  0.99997514  0.53458662  0.12290433     0.05600
C535        C  0.03470995  0.53510217  0.12280748     0.05600
C536        C  0.03514622  0.50083540  0.12272366     0.05600
C537        C  0.00089337  0.96606580  0.12247039     0.05600
C538        C  0.46616082  0.96556973  0.12261879     0.05600
C539        C  0.32953126  0.52564032  0.10157783     0.83500
N540        N  0.36217621  0.52478297  0.10231956    -0.74800
C541        C  0.36545623  0.49972052  0.12125210     0.85900
N542        N  0.33586037  0.97528928  0.13950449    -0.74800
C543        C  0.30301352  0.97582555  0.13892276     0.86000
N544        N  0.29986921  0.50113583  0.11993418    -0.76500
C545        C  0.17345649  0.97638073  0.11044882     0.83500
N546        N  0.14047019  0.97653104  0.10886117    -0.74800
C547        C  0.13544921  0.50146718  0.12644617     0.85900
N548        N  0.16356357  0.52639726  0.14565281    -0.74800
C549        C  0.19668169  0.52653184  0.14737614     0.86000
N550        N  0.20164848  0.50145350  0.12975415    -0.76500
C551        C  0.19679265  0.67111830  0.10162362     0.83500
N552        N  0.16322092  0.63849276  0.10250964    -0.74800
C553        C  0.13500278  0.63531292  0.12150772     0.85900
N554        N  0.14038868  0.66497051  0.13972577    -0.74800
C555        C  0.17384089  0.69780691  0.13901024     0.86000
N556        N  0.20214784  0.70088792  0.11991191    -0.76500
C557        C  0.47395523  0.67013377  0.14781485     0.83500
N558        N  0.47416927  0.63718552  0.14606883    -0.74800
C559        C  0.99925122  0.63421143  0.12695745     0.85900
N560        N  0.02426036  0.66432693  0.10954737    -0.74800
C561        C  0.02434113  0.69742842  0.11114484     0.86000
N562        N  0.99911076  0.70035416  0.13030332    -0.76500
C563        C  0.33056641  0.80370276  0.14736146     0.83500
N564        N  0.36356142  0.83688019  0.14555082    -0.74800
C565        C  0.36656822  0.86500219  0.12645964     0.85900
N566        N  0.33643084  0.85994534  0.10913650    -0.74800
C567        C  0.30328771  0.82691618  0.11079291     0.86000
N568        N  0.30033430  0.79869645  0.12993781    -0.76500
C569        C  0.02448014  0.82714142  0.13869785     0.83500
N570        N  0.02518777  0.86061722  0.13921111    -0.74800
C571        C  0.00083995  0.86586198  0.12094602     0.85900
N572        N  0.47562495  0.83747417  0.10210903    -0.74800
C573        C  0.47459503  0.80388493  0.10143658     0.86000
N574        N  0.99908501  0.79868181  0.11977191    -0.76500
O575        O  0.26283201  0.61397625  0.28060290    -0.82100
O576        O  0.29683893  0.68988934  0.29558096    -0.79100
C577        C  0.32291590  0.72354725  0.29884379     1.01400
O578        O  0.35156495  0.73718048  0.28089813    -0.79200
O579        O  0.39342484  0.70313352  0.29590368    -0.81800
C580        C  0.40102114  0.67708323  0.29905460     1.05900
O581        O  0.38604148  0.64855993  0.28097086    -0.74600
O582        O  0.31003620  0.60674820  0.29581082    -0.74800
C583        C  0.27634663  0.59908085  0.29881396     1.05900
O584        O  0.27425353  0.63346996  0.21384451    -0.82100
O585        O  0.30216721  0.70837495  0.22875225    -0.79100
C586        C  0.33007262  0.72729478  0.21065125     1.01400
O587        O  0.36004442  0.72627449  0.21409883    -0.79200
O588        O  0.40681759  0.69818243  0.22906959    -0.81800
C589        C  0.39785610  0.67034748  0.21089248     1.05900
O590        O  0.36680621  0.64032896  0.21418839    -0.74600
O591        O  0.29180722  0.59337656  0.22895743    -0.74700
C592        C  0.27309688  0.60238737  0.21063352     1.05800
Cr593      Cr  0.28791485  0.66180101  0.25474442     1.93700
Cr594      Cr  0.37444074  0.71230661  0.25502461     1.93200
Cr595      Cr  0.33830661  0.62577402  0.25501420     1.39100
O596        O  0.33356171  0.66663698  0.25507820    -1.19800
O597        O  0.22605084  0.86613069  0.28612230    -0.82100
O598        O  0.19758979  0.79119132  0.27118150    -0.79100
C599        C  0.16962701  0.77251407  0.28928509     1.01400
O600        O  0.13975680  0.77369720  0.28569403    -0.79200
O601        O  0.09364041  0.80251039  0.27073015    -0.81800
C602        C  0.10292826  0.83029612  0.28905584     1.05900
O603        O  0.13407805  0.86020140  0.28571711    -0.74600
O604        O  0.20912868  0.90665818  0.27088140    -0.74800
C605        C  0.22747111  0.89733479  0.28934213     1.05900
O606        O  0.23771405  0.88563656  0.21934573    -0.82100
O607        O  0.20319493  0.80980277  0.20434701    -0.79100
C608        C  0.17687169  0.77628874  0.20097189     1.01400
O609        O  0.14821660  0.76280530  0.21889148    -0.79200
O610        O  0.10711498  0.79754286  0.20385655    -0.81800
C611        C  0.09982385  0.82379490  0.20072564     1.05900
O612        O  0.11481742  0.85218023  0.21894653    -0.74600
O613        O  0.19076464  0.89324008  0.20404340    -0.74700
C614        C  0.22433627  0.90055678  0.20101889     1.05800
Cr615      Cr  0.21228273  0.83785151  0.24519712     1.93700
Cr616      Cr  0.12569874  0.78798663  0.24476313     1.93200
Cr617      Cr  0.16252930  0.87455338  0.24486464     1.39100
O618        O  0.16683077  0.83344612  0.24480693    -1.19800
C619        C  0.46546831  0.99980751  0.37445437     0.05600
C620        C  0.46537973  0.96525259  0.37427787     0.05600
C621        C  0.49985432  0.96520700  0.37425118     0.05600
C622        C  0.03444188  0.99971544  0.37439582     0.05600
C623        C  0.03451573  0.53425603  0.37453697     0.05600
C624        C  0.00003471  0.53430247  0.37452305     0.05600
C625        C  0.16987884  0.97325429  0.39752493     0.83500
N626        N  0.19992630  0.99781977  0.37951555    -0.74800
C627        C  0.19706711  0.52292720  0.36007222     0.85900
N628        N  0.16415354  0.52329150  0.35871424    -0.74800
C629        C  0.13419542  0.99887495  0.37663081     0.86000
N630        N  0.13717808  0.97396213  0.39599739    -0.76500
C631        C  0.32566455  0.52207277  0.39091000     0.83500
N632        N  0.29760274  0.99691942  0.37155834    -0.74800
C633        C  0.30312563  0.97258971  0.35336891     0.85900
N634        N  0.33668529  0.97359985  0.35452440    -0.74800
C635        C  0.36469768  0.99858617  0.37376790     0.86000
N636        N  0.35913079  0.52278017  0.39194618    -0.76500
C637        C  0.47708133  0.67390695  0.36036488     0.83500
N638        N  0.47663739  0.64058424  0.35896017    -0.74800
C639        C  0.50095674  0.63494481  0.37690203     0.85900
N640        N  0.02588207  0.66279386  0.39631801    -0.74800
C641        C  0.02668358  0.69624674  0.39789749     0.86000
N642        N  0.50218513  0.70182013  0.37990464    -0.76500
C643        C  0.16929739  0.69694550  0.35344686     0.83500
N644        N  0.19934623  0.70256780  0.37147114    -0.74800
C645        C  0.19665035  0.67451433  0.39070215     0.85900
N646        N  0.16391688  0.64097293  0.39178345    -0.74800
C647        C  0.13396264  0.63530380  0.37381153     0.86000
N648        N  0.13677082  0.66329571  0.35467231    -0.76500
C649        C  0.02750587  0.83035111  0.35301871     0.83500
N650        N  0.02636550  0.86284260  0.35409026    -0.74800
C651        C  0.50121940  0.86570859  0.37319731     0.85900
N652        N  0.47702142  0.83584925  0.39132404    -0.73600
C653        C  0.47785458  0.80315414  0.39041072     0.86000
N654        N  0.50316093  0.80040585  0.37120182    -0.76500
C655        C  0.30354141  0.82970516  0.39781676     0.83500
N656        N  0.29790101  0.79960771  0.37981470    -0.74800
C657        C  0.32575286  0.80249614  0.36019365     0.85900
N658        N  0.35903667  0.83545373  0.35869759    -0.74800
C659        C  0.36471798  0.86542287  0.37661660     0.86000
N660        N  0.33696423  0.86243800  0.39612534    -0.76500
C661        C  0.50030693  0.59947428  0.37549921    -0.10000
C662        C  0.50010840  0.56988012  0.37484822    -0.11600
C663        C  0.07008263  0.56980903  0.37476248    -0.10000
C664        C  0.09938009  0.59954706  0.37465305    -0.11600
C665        C  0.42978278  0.92971550  0.37448425    -0.10000
C666        C  0.40017163  0.90029501  0.37513733    -0.11600
C667        C  0.40033239  0.99957094  0.37457276    -0.10000
C668        C  0.42995954  0.99984512  0.37465652    -0.11600
C669        C  0.09934904  0.99946917  0.37529073    -0.10000
C670        C  0.06996009  0.99967347  0.37466591    -0.11600
C671        C  0.50013661  0.90031449  0.37398697    -0.10000
C672        C  0.49978686  0.92963476  0.37420662    -0.11600
C673        C  0.17171944  0.72599526  0.33234127    -0.10000
C674        C  0.17139015  0.74814717  0.31335759    -0.11600
C675        C  0.07668056  0.82832278  0.31306304    -0.10000
C676        C  0.05413732  0.82790925  0.33198632    -0.11600
C677        C  0.27401017  0.94608735  0.33226636    -0.10000
C678        C  0.25179892  0.92359151  0.31333462    -0.11600
C679        C  0.42820859  0.67997816  0.32266333    -0.10000
C680        C  0.45095856  0.67918729  0.34073819    -0.11600
C681        C  0.25198601  0.57189706  0.32239117    -0.10000
C682        C  0.22844733  0.54912246  0.34045714    -0.11600
C683        C  0.31988018  0.74772579  0.32244310    -0.10000
C684        C  0.32049210  0.77112194  0.34056159    -0.11600
C685        C  0.07297816  0.82127087  0.17697705    -0.10000
C686        C  0.05047448  0.82215812  0.15869714    -0.11600
C687        C  0.32819963  0.75187199  0.18685075    -0.10000
C688        C  0.32796291  0.77434691  0.16818090    -0.11600
C689        C  0.44718302  0.67267796  0.16858437    -0.10000
C690        C  0.42440583  0.67235141  0.18718555    -0.11600
C691        C  0.17962509  0.75211079  0.17725302    -0.10000
C692        C  0.17890112  0.72882908  0.15896358    -0.11600
C693        C  0.24856054  0.57586346  0.18687925    -0.10000
C694        C  0.22606254  0.55316007  0.16822537    -0.11600
C695        C  0.27207237  0.94982688  0.15895439    -0.10000
C696        C  0.24869824  0.92735371  0.17726538    -0.11600
C697        C  0.09952151  0.60044626  0.12236336    -0.10000
C698        C  0.07003368  0.57089983  0.12273269    -0.11600
C699        C  0.99933912  0.59918079  0.12516667    -0.10000
C700        C  0.99954103  0.56984334  0.12387923    -0.11600
C701        C  0.10036669  0.50144965  0.12471710    -0.10000
C702        C  0.07085080  0.50129774  0.12353573    -0.11600
C703        C  0.00144722  0.90131821  0.12168613    -0.10000
C704        C  0.00136344  0.93076788  0.12212879    -0.11600
C705        C  0.40159764  0.90018381  0.12467044    -0.10000
C706        C  0.43090604  0.92980972  0.12343326    -0.11600
C707        C  0.42990150  0.49932664  0.12243420    -0.10000
C708        C  0.40035884  0.49922265  0.12202048    -0.11600
C709        C  0.32047276  0.54831028  0.41030380    -0.10000
C710        C  0.31956745  0.57128917  0.42792299    -0.11600
C711        C  0.32681862  0.55254001  0.08103327    -0.10000
C712        C  0.32723703  0.57551224  0.06256991    -0.11600
C713        C  0.25207744  0.68051498  0.42758496    -0.10000
C714        C  0.22822677  0.67974737  0.40996805    -0.11600
C715        C  0.42866203  0.74791552  0.42761863    -0.10000
C716        C  0.45163998  0.77169366  0.40987385    -0.11600
C717        C  0.24854094  0.67299801  0.06240546    -0.10000
C718        C  0.22622722  0.67366487  0.08096989    -0.11600
C719        C  0.44757586  0.77426624  0.08095085    -0.10000
C720        C  0.42455104  0.75176119  0.06248170    -0.11600
C721        C  0.07631767  0.74749979  0.43779371    -0.10000
C722        C  0.05346231  0.72530164  0.41900384    -0.11600
C723        C  0.07348375  0.75222236  0.07371854    -0.10000
C724        C  0.05081516  0.72880095  0.09183148    -0.11600
C725        C  0.17170244  0.92371128  0.43737090    -0.10000
C726        C  0.17225375  0.94651168  0.41858838    -0.11600
C727        C  0.27457156  0.82742283  0.41899405    -0.10000
C728        C  0.25250278  0.82821243  0.43781469    -0.11600
C729        C  0.17826184  0.94991412  0.09110975    -0.10000
C730        C  0.17905993  0.92722435  0.07309434    -0.11600
C731        C  0.24841120  0.82143852  0.07359770    -0.10000
C732        C  0.27187535  0.82211380  0.09160386    -0.11600
O733        O  0.13402404  0.77350558  0.96490082    -0.82100
O734        O  0.20926087  0.80250399  0.97987396    -0.79100
C735        C  0.22798719  0.83029059  0.96158162     1.01400
O736        O  0.22669513  0.86018011  0.96475614    -0.79200
O737        O  0.19770408  0.90646301  0.97941037    -0.81800
C738        C  0.16980614  0.89722642  0.96120992     1.05900
O739        O  0.13995785  0.86598984  0.96455310    -0.74600
O740        O  0.09366957  0.79079899  0.97978613    -0.74800
C741        C  0.10280023  0.77208873  0.96160455     1.05900
O742        O  0.11495034  0.76274826  0.53167292    -0.82100
O743        O  0.19065248  0.79768872  0.54670515    -0.79100
C744        C  0.22417478  0.82400605  0.54988609     1.01400
O745        O  0.23767775  0.85235727  0.53161830    -0.79200
O746        O  0.20284314  0.89324341  0.54633445    -0.81800
C747        C  0.17654423  0.90043050  0.54945005     1.05900
O748        O  0.14817854  0.88546492  0.53121658    -0.74600
O749        O  0.10740823  0.80982715  0.54653998    -0.74700
C750        C  0.10015851  0.77632251  0.54985921     1.05800
Cr751      Cr  0.16260303  0.78799112  0.50578902     1.93700
Cr752      Cr  0.21236729  0.87455419  0.00553296     1.93200
Cr753      Cr  0.12582360  0.83767717  0.50553630     1.39100
O754        O  0.16694679  0.83342082  0.50565614    -1.19800
O755        O  0.38621598  0.73715355  0.96884629    -0.82100
O756        O  0.31029181  0.70331830  0.95375580    -0.79100
C757        C  0.27652416  0.67739066  0.95076361     1.01400
O758        O  0.26291466  0.64880865  0.96877541    -0.79200
O759        O  0.29670316  0.60666383  0.95395058    -0.81800
C760        C  0.32262381  0.59885288  0.95106082     1.05900
O761        O  0.35116210  0.61387768  0.96910527    -0.74600
O762        O  0.39329496  0.68978067  0.95393949    -0.74800
C763        C  0.40115858  0.72353201  0.95087901     1.05900
O764        O  0.36685538  0.72619714  0.53554441    -0.82100
O765        O  0.29194419  0.69845902  0.52050781    -0.79100
C766        C  0.27296126  0.67071049  0.53874449     1.01400
O767        O  0.27382331  0.64061318  0.53553691    -0.79200
O768        O  0.30154341  0.59337675  0.52076519    -0.81800
C769        C  0.32934014  0.60221181  0.53895887     1.05900
O770        O  0.35939918  0.63325345  0.53572496    -0.74600
O771        O  0.40666943  0.70820976  0.52069080    -0.74700
C772        C  0.39785224  0.72716921  0.53884478     1.05800
Cr773      Cr  0.33843630  0.71238279  0.99460964     1.93700
Cr774      Cr  0.28764592  0.62588459  0.99469812     1.93200
Cr775      Cr  0.37411987  0.66168140  0.99480132     1.39100
O776        O  0.33339514  0.66664524  0.99455033    -1.19800
C777        C  0.46567491  0.49981766  0.62263312     0.05600
C778        C  0.99996576  0.53457451  0.62286866     0.05600
C779        C  0.03470155  0.53509275  0.62276509     0.05600
C780        C  0.03514133  0.50082717  0.62268654     0.05600
C781        C  0.00089631  0.96607327  0.62244355     0.05600
C782        C  0.46616029  0.96558233  0.62258923     0.05600
C783        C  0.32949739  0.52558057  0.60155283     0.83500
N784        N  0.36214688  0.52473375  0.60229533    -0.74800
C785        C  0.36542887  0.49966528  0.62121638     0.85900
N786        N  0.33588201  0.97535590  0.63954450    -0.74800
C787        C  0.30303938  0.97590112  0.63896192     0.86000
N788        N  0.29983200  0.50106002  0.61989776    -0.76500
C789        C  0.17345402  0.97636183  0.61050097     0.83500
N790        N  0.14046683  0.97651024  0.60891314    -0.74800
C791        C  0.13545125  0.50147621  0.62638381     0.85900
N792        N  0.16355850  0.52640601  0.64559577    -0.74800
C793        C  0.19667448  0.52653836  0.64733250     0.86000
N794        N  0.20164577  0.50145682  0.62972015    -0.76500
C795        C  0.19677690  0.67112663  0.60161442     0.83500
N796        N  0.16320899  0.63849822  0.60249729    -0.74800
C797        C  0.13497548  0.63532228  0.62147132     0.85900
N798        N  0.14034246  0.66498759  0.63966995    -0.74800
C799        C  0.17379226  0.69782798  0.63895691     0.86000
N800        N  0.20211426  0.70090396  0.61988210    -0.76500
C801        C  0.47394752  0.67011979  0.64779334     0.83500
N802        N  0.47416024  0.63717147  0.64603265    -0.74800
C803        C  0.99923596  0.63419787  0.62693399     0.85900
N804        N  0.02422978  0.66431362  0.60951526    -0.74800
C805        C  0.02430313  0.69741148  0.61111677     0.86000
N806        N  0.99907868  0.70033230  0.63028876    -0.76500
C807        C  0.33057621  0.80372288  0.64734980     0.83500
N808        N  0.36357343  0.83689661  0.64552253    -0.74800
C809        C  0.36656924  0.86501593  0.62643355     0.85900
N810        N  0.33641952  0.85995984  0.60913037    -0.74800
C811        C  0.30327542  0.82693424  0.61080520     0.86000
N812        N  0.30033248  0.79871791  0.62994675    -0.76500
C813        C  0.02447509  0.82716118  0.63866941     0.83500
N814        N  0.02518244  0.86063609  0.63916655    -0.74800
C815        C  0.00083776  0.86587280  0.62089146     0.85900
N816        N  0.47564114  0.83748197  0.60207530    -0.74800
C817        C  0.47462292  0.80389857  0.60141476     0.86000
N818        N  0.99908151  0.79869244  0.61974942    -0.76500
O819        O  0.26280596  0.61398113  0.78057521    -0.82100
O820        O  0.29682231  0.68989975  0.79554658    -0.79100
C821        C  0.32290024  0.72355833  0.79880382     1.01400
O822        O  0.35155310  0.73718245  0.78086281    -0.79200
O823        O  0.39340454  0.70312529  0.79587604    -0.81800
C824        C  0.40099962  0.67707411  0.79902672     1.05900
O825        O  0.38601176  0.64854622  0.78094808    -0.74600
O826        O  0.31000280  0.60673887  0.79578014    -0.74800
C827        C  0.27631459  0.59907605  0.79878189     1.05900
O828        O  0.27422931  0.63346734  0.71381663    -0.82100
O829        O  0.30215757  0.70837642  0.72871814    -0.79100
C830        C  0.33006714  0.72729493  0.71062099     1.01400
O831        O  0.36003394  0.72626571  0.71406829    -0.79200
O832        O  0.40680062  0.69816740  0.72904531    -0.81800
C833        C  0.39784050  0.67033040  0.71087097     1.05900
O834        O  0.36678646  0.64031550  0.71416376    -0.74600
O835        O  0.29178245  0.59337237  0.72892689    -0.74700
C836        C  0.27307215  0.60238468  0.71060457     1.05800
Cr837      Cr  0.28789605  0.66180347  0.75471379     1.93700
Cr838      Cr  0.37442441  0.71229836  0.75499543     1.93200
Cr839      Cr  0.33827974  0.62576473  0.75498708     1.39100
O840        O  0.33354061  0.66663156  0.75504957    -1.19800
O841        O  0.22605292  0.86612834  0.78609627    -0.82100
O842        O  0.19756970  0.79118788  0.77113125    -0.79100
C843        C  0.16961067  0.77250959  0.78923881     1.01400
O844        O  0.13974238  0.77369941  0.78565804    -0.79200
O845        O  0.09363033  0.80252474  0.77071120    -0.81800
C846        C  0.10292297  0.83030165  0.78904750     1.05900
O847        O  0.13407449  0.86020554  0.78571602    -0.74600
O848        O  0.20912555  0.90666329  0.77088827    -0.74800
C849        C  0.22747595  0.89733258  0.78933334     1.05900
O850        O  0.23770299  0.88565687  0.71932761    -0.82100
O851        O  0.20316390  0.80982708  0.70429999    -0.79100
C852        C  0.17683704  0.77631498  0.70092076     1.01400
O853        O  0.14819087  0.76282741  0.71884994    -0.79200
O854        O  0.10710401  0.79758139  0.70383725    -0.81800
C855        C  0.09981645  0.82383640  0.70071547     1.05900
O856        O  0.11481243  0.85221685  0.71894290    -0.74600
O857        O  0.19076275  0.89328642  0.70404713    -0.74700
C858        C  0.22433252  0.90059880  0.70101810     1.05800
Cr859      Cr  0.21226761  0.83786113  0.74516249     1.93700
Cr860      Cr  0.12568414  0.78800669  0.74473532     1.93200
Cr861      Cr  0.16252459  0.87457575  0.74486449     1.39100
O862        O  0.16681980  0.83346458  0.74478657    -1.19800
C863        C  0.46547247  0.99979978  0.87447804     0.05600
C864        C  0.46538002  0.96524321  0.87428881     0.05600
C865        C  0.49985365  0.96519470  0.87424379     0.05600
C866        C  0.03443746  0.99969830  0.87436024     0.05600
C867        C  0.03451658  0.53426486  0.87454575     0.05600
C868        C  0.00003616  0.53431307  0.87451895     0.05600
C869        C  0.16986566  0.97323338  0.89751277     0.83500
N870        N  0.19992257  0.99780476  0.87951450    -0.74800
C871        C  0.19704173  0.52290713  0.86003685     0.85900
N872        N  0.16412912  0.52327404  0.85869620    -0.74800
C873        C  0.13419204  0.99885904  0.87660655     0.86000
N874        N  0.13716561  0.97394127  0.89597338    -0.76500
C875        C  0.32567882  0.52211066  0.89085849     0.83500
N876        N  0.29759853  0.99690189  0.87156481    -0.74800
C877        C  0.30313176  0.97257629  0.85337798     0.85900
N878        N  0.33669342  0.97359049  0.85454555    -0.74800
C879        C  0.36469651  0.99857509  0.87379810     0.86000
N880        N  0.35914262  0.52281343  0.89189281    -0.76500
C881        C  0.47709194  0.67392351  0.86031613     0.83500
N882        N  0.47664646  0.64059949  0.85892084    -0.74800
C883        C  0.50096666  0.63496513  0.87686634     0.85900
N884        N  0.02586392  0.66279484  0.89628976    -0.74800
C885        C  0.02665499  0.69624178  0.89787942     0.86000
N886        N  0.50219693  0.70184227  0.87985143    -0.76500
C887        C  0.16930256  0.69694201  0.85339623     0.83500
N888        N  0.19935886  0.70256757  0.87141269    -0.74800
C889        C  0.19666771  0.67451980  0.89064986     0.85900
N890        N  0.16393145  0.64098185  0.89174499    -0.74800
C891        C  0.13397005  0.63530923  0.87378167     0.86000
N892        N  0.13677351  0.66329511  0.85463673    -0.76500
C893        C  0.02750931  0.83034608  0.85301645     0.83500
N894        N  0.02635977  0.86283251  0.85407799    -0.74800
C895        C  0.50122463  0.86570180  0.87317327     0.85900
N896        N  0.47702838  0.83584129  0.89129879    -0.73600
C897        C  0.47786450  0.80314820  0.89038433     0.86000
N898        N  0.50317249  0.80040273  0.87117544    -0.76500
C899        C  0.30350031  0.82971959  0.89775753     0.83500
N900        N  0.29786145  0.79962969  0.87974531    -0.74800
C901        C  0.32572244  0.80251925  0.86013554     0.85900
N902        N  0.35901475  0.83547026  0.85866211    -0.74800
C903        C  0.36469518  0.86543219  0.87659132     0.86000
N904        N  0.33693180  0.86244625  0.89608858    -0.76500
C905        C  0.50031088  0.59949121  0.87548023    -0.10000
C906        C  0.50011040  0.56989583  0.87484547    -0.11600
C907        C  0.07008500  0.56981778  0.87476147    -0.10000
C908        C  0.09938403  0.59955505  0.87463979    -0.11600
C909        C  0.42977951  0.92970891  0.87449431    -0.10000
C910        C  0.40015995  0.90029591  0.87513658    -0.11600
C911        C  0.40033575  0.99956619  0.87461123    -0.10000
C912        C  0.42996441  0.99984166  0.87469299    -0.11600
C913        C  0.09934455  0.99945072  0.87525408    -0.10000
C914        C  0.06995422  0.99965248  0.87462536    -0.11600
C915        C  0.50013761  0.90030457  0.87396526    -0.10000
C916        C  0.49978398  0.92962230  0.87419021    -0.11600
C917        C  0.17171572  0.72598708  0.83228733    -0.10000
C918        C  0.17137779  0.74813707  0.81330524    -0.11600
C919        C  0.07667876  0.82832072  0.81305848    -0.10000
C920        C  0.05413756  0.82790356  0.83198408    -0.11600
C921        C  0.27402457  0.94607402  0.83226540    -0.10000
C922        C  0.25181331  0.92358152  0.81332949    -0.11600
C923        C  0.42819822  0.67997550  0.82262672    -0.10000
C924        C  0.45095965  0.67919390  0.84069363    -0.11600
C925        C  0.25194937  0.57188552  0.82235249    -0.10000
C926        C  0.22841341  0.54910488  0.84041634    -0.11600
C927        C  0.31986112  0.74774782  0.82239055    -0.10000
C928        C  0.32046789  0.77114797  0.84050164    -0.11600
C929        C  0.07297201  0.82131691  0.67696808    -0.10000
C930        C  0.05046740  0.82219054  0.65868098    -0.11600
C931        C  0.32820682  0.75188365  0.68682729    -0.10000
C932        C  0.32797911  0.77436803  0.66816449    -0.11600
C933        C  0.44717511  0.67265663  0.66857002    -0.10000
C934        C  0.42439545  0.67232908  0.68717000    -0.11600
C935        C  0.17957674  0.75214071  0.67718969    -0.10000
C936        C  0.17884338  0.72885457  0.65890003    -0.11600
C937        C  0.24853804  0.57586344  0.68684828    -0.10000
C938        C  0.22604584  0.55316316  0.66818970    -0.11600
C939        C  0.27208904  0.94989881  0.65898335    -0.10000
C940        C  0.24870277  0.92741489  0.67728021    -0.11600
C941        C  0.09950110  0.60044850  0.62232418    -0.10000
C942        C  0.07002173  0.57089372  0.62268878    -0.11600
C943        C  0.99932831  0.59916904  0.62513536    -0.10000
C944        C  0.99952946  0.56983090  0.62384362    -0.11600
C945        C  0.10036634  0.50145186  0.62465179    -0.10000
C946        C  0.07084777  0.50129445  0.62348067    -0.11600
C947        C  0.00144039  0.90132468  0.62162574    -0.10000
C948        C  0.00135968  0.93077437  0.62208022    -0.11600
C949        C  0.40159690  0.90019734  0.62463172    -0.10000
C950        C  0.43090348  0.92982452  0.62339332    -0.11600
C951        C  0.42989304  0.49931354  0.62240557    -0.10000
C952        C  0.40034094  0.49918878  0.62198979    -0.11600
C953        C  0.32049037  0.54834478  0.91026034    -0.10000
C954        C  0.31958808  0.57131695  0.92789029    -0.11600
C955        C  0.32678994  0.55249479  0.58102649    -0.10000
C956        C  0.32722174  0.57548311  0.56257590    -0.11600
C957        C  0.25209330  0.68052232  0.92753907    -0.10000
C958        C  0.22824760  0.67975647  0.90991534    -0.11600
C959        C  0.42867055  0.74791633  0.92759386    -0.10000
C960        C  0.45165069  0.77168834  0.90984702    -0.11600
C961        C  0.24854300  0.67299002  0.56243256    -0.10000
C962        C  0.22622514  0.67366660  0.58098486    -0.11600
C963        C  0.44759152  0.77426134  0.58095201    -0.10000
C964        C  0.42455535  0.75174686  0.56249630    -0.11600
C965        C  0.07627267  0.74747315  0.93779906    -0.10000
C966        C  0.05342099  0.72528723  0.91899995    -0.11600
C967        C  0.07344593  0.75221421  0.57369145    -0.10000
C968        C  0.05077077  0.72878792  0.59179956    -0.11600
C969        C  0.17166542  0.92367485  0.93735661    -0.10000
C970        C  0.17222735  0.94648167  0.91857504    -0.11600
C971        C  0.27452599  0.82742884  0.91893385    -0.10000
C972        C  0.25245855  0.82820687  0.93776291    -0.11600
C973        C  0.17826356  0.94990187  0.59115533    -0.10000
C974        C  0.17906587  0.92722393  0.57312755    -0.11600
C975        C  0.24838368  0.82144856  0.57363455    -0.10000
C976        C  0.27185211  0.82212815  0.59163513    -0.11600
O977        O  0.63403473  0.27351789  0.46488974    -0.82100
O978        O  0.70927098  0.30251654  0.47986986    -0.79100
C979        C  0.72799668  0.33030250  0.46157683     1.01400
O980        O  0.72669769  0.36018874  0.46474726    -0.79200
O981        O  0.69770115  0.40646802  0.47939970    -0.81800
C982        C  0.66979918  0.39722897  0.46120332     1.05900
O983        O  0.63995147  0.36599344  0.46455149    -0.74600
O984        O  0.59367414  0.29080224  0.47977860    -0.74800
C985        C  0.60280920  0.27209758  0.46159415     1.05900
O986        O  0.61496273  0.26274409  0.03168758    -0.82100
O987        O  0.69066770  0.29768838  0.04670979    -0.79100
C988        C  0.72418814  0.32401013  0.04989016     1.01400
O989        O  0.73768589  0.35236185  0.03162304    -0.79200
O990        O  0.70284719  0.39324496  0.04633852    -0.81800
C991        C  0.67654726  0.40043061  0.04945453     1.05900
O992        O  0.64817902  0.38545906  0.03122450    -0.74600
O993        O  0.60741975  0.30982219  0.04655631    -0.74700
C994        C  0.60017088  0.27631770  0.04987439     1.05800
Cr995      Cr  0.66260983  0.28798648  0.00579756     1.93700
Cr996      Cr  0.71236827  0.37456275  0.50552391     1.93200
Cr997      Cr  0.62582451  0.33766767  0.00554993     1.39100
O998        O  0.66695015  0.33341519  0.00566485    -1.19800
O999        O  0.88621653  0.23715686  0.46885191    -0.82100
O1000       O  0.81029221  0.20331631  0.45375579    -0.79100
C1001       C  0.77652492  0.17738723  0.45076472     1.01400
O1002       O  0.76291777  0.14880490  0.46877569    -0.79200
O1003       O  0.79671191  0.10666405  0.45395106    -0.81800
C1004       C  0.82263381  0.09885432  0.45106331     1.05900
O1005       O  0.85117227  0.11388299  0.46910784    -0.74600
O1006       O  0.89330224  0.18978765  0.45394585    -0.74800
C1007       C  0.90116507  0.22353883  0.45088782     1.05900
O1008       O  0.86685726  0.22619797  0.03553925    -0.82100
O1009       O  0.79194371  0.19845383  0.02050360    -0.79100
C1010       C  0.77296006  0.17070660  0.03874214     1.01400
O1011       O  0.77382304  0.14060947  0.03553711    -0.79200
O1012       O  0.80154386  0.09337057  0.02077409    -0.81800
C1013       C  0.82934157  0.10220662  0.03896714     1.05900
O1014       O  0.85940030  0.13324819  0.03573120    -0.74600
O1015       O  0.90667059  0.20820534  0.02069573    -0.74700
C1016       C  0.89785371  0.22717009  0.03884412     1.05800
Cr1017     Cr  0.83843457  0.21238238  0.49461096     1.93700
Cr1018     Cr  0.78765082  0.12588376  0.49469818     1.93200
Cr1019     Cr  0.87412489  0.16168657  0.49480556     1.39100
O1020       O  0.83339803  0.16664666  0.49455172    -1.19800
C1021       C  0.96567888  0.99981314  0.12264192     0.05600
C1022       C  0.49995948  0.03456495  0.12287831     0.05600
C1023       C  0.53469744  0.03508694  0.12278521     0.05600
C1024       C  0.53513963  0.00082254  0.12270865     0.05600
C1025       C  0.50088600  0.46606821  0.12247256     0.05600
C1026       C  0.96616613  0.46559250  0.12262066     0.05600
C1027       C  0.82950514  0.02558447  0.10157231     0.83500
N1028       N  0.86215241  0.02473268  0.10231507    -0.74800
C1029       C  0.86543272  0.99966565  0.12124013     0.85900
N1030       N  0.83588213  0.47534192  0.13954510    -0.74800
C1031       C  0.80303384  0.47587522  0.13896091     0.86000
N1032       N  0.79984026  0.00106983  0.11992079    -0.76500
C1033       C  0.67345327  0.47636707  0.11049918     0.83500
N1034       N  0.64046419  0.47651250  0.10891367    -0.74800
C1035       C  0.63545215  0.00147736  0.12640076     0.85900
N1036       N  0.66356600  0.02641324  0.14560388    -0.74800
C1037       C  0.69668362  0.02654833  0.14733163     0.86000
N1038       N  0.70165062  0.00146446  0.12971951    -0.76500
C1039       C  0.69678058  0.17111267  0.10162991     0.83500
N1040       N  0.66321027  0.13848567  0.10251323    -0.74800
C1041       C  0.63498269  0.13530806  0.12149715     0.85900
N1042       N  0.64035808  0.16496990  0.13970455    -0.74800
C1043       C  0.67380944  0.19780817  0.13899149     0.86000
N1044       N  0.70212530  0.20088629  0.11990695    -0.76500
C1045       C  0.97394276  0.17012146  0.14779583     0.83500
N1046       N  0.97415546  0.13717271  0.14604278    -0.74800
C1047       C  0.49921103  0.13418070  0.12692186     0.85900
N1048       N  0.52421275  0.16429677  0.10950788    -0.74800
C1049       C  0.52429457  0.19739862  0.11111189     0.86000
N1050       N  0.49907194  0.20032404  0.13028197    -0.76500
C1051       C  0.83057288  0.30373105  0.14737588     0.83500
N1052       N  0.86357149  0.33690435  0.14555442    -0.74800
C1053       C  0.86657422  0.36502502  0.12646299     0.85900
N1054       N  0.83643027  0.35997011  0.10915155    -0.74800
C1055       C  0.80328509  0.32694497  0.11082052     0.86000
N1056       N  0.80033528  0.29872764  0.12996456    -0.76500
C1057       C  0.52448648  0.32716477  0.13868208     0.83500
N1058       N  0.52518741  0.36063666  0.13918656    -0.74800
C1059       C  0.50083484  0.36587006  0.12091914     0.85900
N1060       N  0.97563358  0.33748778  0.10208925    -0.74800
C1061       C  0.97461332  0.30390295  0.10142479     0.86000
N1062       N  0.49909231  0.29869634  0.11976240    -0.76500
O1063       O  0.76280293  0.11396049  0.28057406    -0.82100
O1064       O  0.79681326  0.18987512  0.29556200    -0.79100
C1065       C  0.82288863  0.22353489  0.29882084     1.01400
O1066       O  0.85153829  0.23716533  0.28087588    -0.79200
O1067       O  0.89339758  0.20311648  0.29587964    -0.81800
C1068       C  0.90099546  0.17706709  0.29902678     1.05900
O1069       O  0.88601165  0.14854182  0.28094542    -0.74600
O1070       O  0.81000355  0.10672480  0.29577893    -0.74800
C1071       C  0.77631371  0.09905727  0.29878014     1.05900
O1072       O  0.77423125  0.13346668  0.21382042    -0.82100
O1073       O  0.80214601  0.20836923  0.22873741    -0.79100
C1074       C  0.83005275  0.22729005  0.21063810     1.01400
O1075       O  0.86001936  0.22625937  0.21407880    -0.79200
O1076       O  0.90679478  0.19816963  0.22904763    -0.81800
C1077       C  0.89783702  0.17033520  0.21087081     1.05900
O1078       O  0.86678506  0.14031806  0.21416248    -0.74600
O1079       O  0.79178487  0.09336982  0.22892477    -0.74700
C1080       C  0.77307825  0.10238671  0.21060270     1.05800
Cr1081     Cr  0.78788976  0.16179012  0.25472287     1.93700
Cr1082     Cr  0.87441492  0.21229141  0.25500251     1.93200
Cr1083     Cr  0.83827985  0.12575924  0.25498605     1.39100
O1084       O  0.83353563  0.16662281  0.25505499    -1.19800
O1085       O  0.72604574  0.36611744  0.28611635    -0.82100
O1086       O  0.69756426  0.29117885  0.27116067    -0.79100
C1087       C  0.66960037  0.27250362  0.28926385     1.01400
O1088       O  0.63973347  0.27369381  0.28567437    -0.79200
O1089       O  0.59363528  0.30252937  0.27071504    -0.81800
C1090       C  0.60293209  0.33030691  0.28905196     1.05900
O1091       O  0.63408639  0.36020780  0.28572132    -0.74600
O1092       O  0.70913602  0.40665864  0.27088874    -0.74800
C1093       C  0.72747528  0.39732518  0.28934357     1.05900
O1094       O  0.73771075  0.38564007  0.21934418    -0.82100
O1095       O  0.70317534  0.30980834  0.20432839    -0.79100
C1096       C  0.67684706  0.27629718  0.20094898     1.01400
O1097       O  0.64819392  0.26281501  0.21887014    -0.79200
O1098       O  0.60711730  0.29757780  0.20384267    -0.81800
C1099       C  0.59983008  0.32383303  0.20072003     1.05900
O1100       O  0.61482232  0.35221091  0.21894986    -0.74600
O1101       O  0.69077098  0.39326486  0.20405141    -0.74700
C1102       C  0.72434056  0.40057582  0.20102663     1.05800
Cr1103     Cr  0.71227051  0.33784815  0.24518540     1.93700
Cr1104     Cr  0.62568647  0.28800101  0.24474648     1.93200
Cr1105     Cr  0.66253441  0.37456869  0.24486944     1.39100
O1106       O  0.66682486  0.33345529  0.24479912    -1.19800
C1107       C  0.96547865  0.49979906  0.37445853     0.05600
C1108       C  0.96539079  0.46524445  0.37427483     0.05600
C1109       C  0.99986791  0.46520272  0.37424702     0.05600
C1110       C  0.53443031  0.49970018  0.37434867     0.05600
C1111       C  0.53450474  0.03426113  0.37453713     0.05600
C1112       C  0.50002457  0.03431055  0.37451537     0.05600
C1113       C  0.66984943  0.47321920  0.39749104     0.83500
N1114       N  0.69991061  0.49778927  0.37949668    -0.74800
C1115       C  0.69703214  0.02289361  0.36003091     0.85900
N1116       N  0.66411925  0.02325964  0.35868176    -0.74800
C1117       C  0.63418317  0.49884977  0.37657633     0.86000
N1118       N  0.63715105  0.47393023  0.39594578    -0.76500
C1119       C  0.82568116  0.02209405  0.39087429     0.83500
N1120       N  0.79760709  0.49689957  0.37156247    -0.74800
C1121       C  0.80313547  0.47257303  0.35337368     0.85900
N1122       N  0.83669744  0.47358819  0.35453156    -0.74800
C1123       C  0.86470645  0.49857591  0.37377697     0.86000
N1124       N  0.85914556  0.02279794  0.39190755    -0.76500
C1125       C  0.97707936  0.17390825  0.36031572     0.83500
N1126       N  0.97664048  0.14058808  0.35891016    -0.74800
C1127       C  0.00095787  0.13495064  0.37685651     0.85900
N1128       N  0.52585870  0.16279705  0.39628900    -0.74800
C1129       C  0.52665736  0.19624798  0.39787511     0.86000
N1130       N  0.00217418  0.20181967  0.37986152    -0.76500
C1131       C  0.66928614  0.19693793  0.35342222     0.83500
N1132       N  0.69934378  0.20256198  0.37143525    -0.74800
C1133       C  0.69665581  0.17451120  0.39066606     0.85900
N1134       N  0.66392110  0.14097135  0.39175833    -0.74800
C1135       C  0.63395837  0.13530107  0.37379786     0.86000
N1136       N  0.63675906  0.16328993  0.35465912    -0.76500
C1137       C  0.52751275  0.33035515  0.35301039     0.83500
N1138       N  0.52636239  0.36284113  0.35407003    -0.74800
C1139       C  0.00125189  0.36571786  0.37320210     0.85900
N1140       N  0.97705443  0.33585838  0.39132782    -0.73600
C1141       C  0.97788905  0.30316462  0.39041384     0.86000
N1142       N  0.00319536  0.30041682  0.37120519    -0.76500
C1143       C  0.80351711  0.32972330  0.39776280     0.83500
N1144       N  0.79787347  0.29962536  0.37976010    -0.74800
C1145       C  0.82572950  0.30250495  0.36014956     0.85900
N1146       N  0.85902246  0.33545503  0.35866527    -0.74800
C1147       C  0.86470820  0.36542573  0.37658502     0.86000
N1148       N  0.83694899  0.36244887  0.39608325    -0.76500
C1149       C  0.00030676  0.09947981  0.37546301    -0.10000
C1150       C  0.00010965  0.06988635  0.37482958    -0.11600
C1151       C  0.57007310  0.06981201  0.37476317    -0.10000
C1152       C  0.59937375  0.09954687  0.37465045    -0.11600
C1153       C  0.92979208  0.42970578  0.37447513    -0.10000
C1154       C  0.90017390  0.40029001  0.37511967    -0.11600
C1155       C  0.90034316  0.49956402  0.37458360    -0.10000
C1156       C  0.92996985  0.49983693  0.37466519    -0.11600
C1157       C  0.59933838  0.49944947  0.37522373    -0.10000
C1158       C  0.56994873  0.49965460  0.37460195    -0.11600
C1159       C  0.00016217  0.40031869  0.37398786    -0.10000
C1160       C  0.99980467  0.42963417  0.37420405    -0.11600
C1161       C  0.67169752  0.22598401  0.33231737    -0.10000
C1162       C  0.67136080  0.24813328  0.31333475    -0.11600
C1163       C  0.57668922  0.32833063  0.31306152    -0.10000
C1164       C  0.55414657  0.32791473  0.33198436    -0.11600
C1165       C  0.77402278  0.44606894  0.33226959    -0.10000
C1166       C  0.75180956  0.42357492  0.31333757    -0.11600
C1167       C  0.92819194  0.17996722  0.32262660    -0.10000
C1168       C  0.95095074  0.17918259  0.34069362    -0.11600
C1169       C  0.75194855  0.07186548  0.32234983    -0.10000
C1170       C  0.72840801  0.04908748  0.34041216    -0.11600
C1171       C  0.81985102  0.24772039  0.32241252    -0.10000
C1172       C  0.82046601  0.27112533  0.34052259    -0.11600
C1173       C  0.57298890  0.32131687  0.17697100    -0.10000
C1174       C  0.55048438  0.32219498  0.15868681    -0.11600
C1175       C  0.82819115  0.25188366  0.18685036    -0.10000
C1176       C  0.82796839  0.27437287  0.16819040    -0.11600
C1177       C  0.94717164  0.17266369  0.16856972    -0.10000
C1178       C  0.92439263  0.17233796  0.18716913    -0.11600
C1179       C  0.67959268  0.25211902  0.17722566    -0.10000
C1180       C  0.67886378  0.22883344  0.15893794    -0.11600
C1181       C  0.74855083  0.07587241  0.18684158    -0.10000
C1182       C  0.72605919  0.05317454  0.16818258    -0.11600
C1183       C  0.77208910  0.44986863  0.15898407    -0.10000
C1184       C  0.74870954  0.42738527  0.17728501    -0.11600
C1185       C  0.59950284  0.10043862  0.12234827    -0.10000
C1186       C  0.57001793  0.07088861  0.12271214    -0.11600
C1187       C  0.49930548  0.09915219  0.12512926    -0.10000
C1188       C  0.49951666  0.06981858  0.12384460    -0.11600
C1189       C  0.60036627  0.00145126  0.12467633    -0.10000
C1190       C  0.57084704  0.00129231  0.12350684    -0.11600
C1191       C  0.50143241  0.40131990  0.12165793    -0.10000
C1192       C  0.50134872  0.43076842  0.12211210    -0.11600
C1193       C  0.90160317  0.40020622  0.12466600    -0.10000
C1194       C  0.93090945  0.42983413  0.12342775    -0.11600
C1195       C  0.92989278  0.99930230  0.12242243    -0.10000
C1196       C  0.90034176  0.99918109  0.12201117    -0.11600
C1197       C  0.82049667  0.04833573  0.41027054    -0.10000
C1198       C  0.81959805  0.07131383  0.42789628    -0.11600
C1199       C  0.82679752  0.05249545  0.08104031    -0.10000
C1200       C  0.82722536  0.07547980  0.06258645    -0.11600
C1201       C  0.75209036  0.18051723  0.42754398    -0.10000
C1202       C  0.72823883  0.17974764  0.40992597    -0.11600
C1203       C  0.92868407  0.24792748  0.42761053    -0.10000
C1204       C  0.95167030  0.27170343  0.40987097    -0.11600
C1205       C  0.74854088  0.17298622  0.06243113    -0.10000
C1206       C  0.72622364  0.17365683  0.08098901    -0.11600
C1207       C  0.94758653  0.27426932  0.08095464    -0.10000
C1208       C  0.92455545  0.25175287  0.06249584    -0.11600
C1209       C  0.57628363  0.24748241  0.43778765    -0.10000
C1210       C  0.55343008  0.22529515  0.41899053    -0.11600
C1211       C  0.57345570  0.25220726  0.07370309    -0.10000
C1212       C  0.55077351  0.22877723  0.09180400    -0.11600
C1213       C  0.67165291  0.42367186  0.43734675    -0.10000
C1214       C  0.67220909  0.44647156  0.41856013    -0.11600
C1215       C  0.77454547  0.32744213  0.41893789    -0.10000
C1216       C  0.75247508  0.32822179  0.43776295    -0.11600
C1217       C  0.67826480  0.44990802  0.09115312    -0.10000
C1218       C  0.67906946  0.42722862  0.07312818    -0.11600
C1219       C  0.74840030  0.32145819  0.07363889    -0.10000
C1220       C  0.77186741  0.32214013  0.09164274    -0.11600
O1221       O  0.63406058  0.27352910  0.96491544    -0.82100
O1222       O  0.70929294  0.30251955  0.97991852    -0.79100
C1223       C  0.72802282  0.33030040  0.96162222     1.01400
O1224       O  0.72672209  0.36018723  0.96478122    -0.79200
O1225       O  0.69773374  0.40648048  0.97942154    -0.81800
C1226       C  0.66983000  0.39724823  0.96122922     1.05900
O1227       O  0.63997949  0.36601525  0.96457730    -0.74600
O1228       O  0.59370109  0.29082077  0.97979344    -0.74800
C1229       C  0.60283565  0.27210979  0.96161575     1.05900
O1230       O  0.61496098  0.26273808  0.53167160    -0.82100
O1231       O  0.69067173  0.29767814  0.54666986    -0.79100
C1232       C  0.72419182  0.32400186  0.54984767     1.01400
O1233       O  0.73767942  0.35235893  0.53158635    -0.79200
O1234       O  0.70282637  0.39322861  0.54631410    -0.81800
C1235       C  0.67652988  0.40041970  0.54942668     1.05900
O1236       O  0.64816222  0.38544929  0.53119601    -0.74600
O1237       O  0.60741236  0.30981472  0.54653766    -0.74700
C1238       C  0.60017318  0.27631394  0.54986145     1.05800
Cr1239     Cr  0.66259718  0.28797783  0.50576554     1.93700
Cr1240     Cr  0.71238899  0.37457072  0.00555221     1.93200
Cr1241     Cr  0.62580446  0.33765320  0.50552784     1.39100
O1242       O  0.66693245  0.33340406  0.50563835    -1.19800
O1243       O  0.88620988  0.23713382  0.96886654    -0.82100
O1244       O  0.81028334  0.20329316  0.95378140    -0.79100
C1245       C  0.77651466  0.17736633  0.95079426     1.01400
O1246       O  0.76290702  0.14878633  0.96880755    -0.79200
O1247       O  0.79669019  0.10663364  0.95398110    -0.81800
C1248       C  0.82261086  0.09882195  0.95109143     1.05900
O1249       O  0.85115549  0.11385628  0.96912849    -0.74600
O1250       O  0.89329599  0.18976432  0.95396341    -0.74800
C1251       C  0.90115672  0.22351531  0.95090092     1.05900
O1252       O  0.86685166  0.22621355  0.53552122    -0.82100
O1253       O  0.79194023  0.19846666  0.52047621    -0.79100
C1254       C  0.77295790  0.17071720  0.53871315     1.01400
O1255       O  0.77382536  0.14062253  0.53550673    -0.79200
O1256       O  0.80156006  0.09339424  0.52074791    -0.81800
C1257       C  0.82935544  0.10223651  0.53894642     1.05900
O1258       O  0.85941120  0.13328005  0.53571177    -0.74600
O1259       O  0.90667482  0.20823422  0.52067632    -0.74700
C1260       C  0.89784968  0.22718954  0.53882843     1.05800
Cr1261     Cr  0.83843224  0.21236227  0.99463280     1.93700
Cr1262     Cr  0.78763946  0.12586352  0.99472740     1.93200
Cr1263     Cr  0.87411506  0.16165943  0.99482522     1.39100
O1264       O  0.83339044  0.16662391  0.99457525    -1.19800
C1265       C  0.96569159  0.99982892  0.62262852     0.05600
C1266       C  0.49997047  0.03457608  0.62287967     0.05600
C1267       C  0.53470517  0.03509126  0.62278403     0.05600
C1268       C  0.53514020  0.00082406  0.62269603     0.05600
C1269       C  0.50087514  0.46605655  0.62248041     0.05600
C1270       C  0.96616256  0.46558021  0.62260649     0.05600
C1271       C  0.82953912  0.02564327  0.60157444     0.83500
N1272       N  0.86218306  0.02478409  0.60230909    -0.74800
C1273       C  0.86546520  0.99972029  0.62123769     0.85900
N1274       N  0.83586170  0.47530342  0.63952289    -0.74800
C1275       C  0.80301226  0.47583541  0.63893551     0.86000
N1276       N  0.79988018  0.00113938  0.61993372    -0.76500
C1277       C  0.67344439  0.47636756  0.61046035     0.83500
N1278       N  0.64045431  0.47651071  0.60887542    -0.74800
C1279       C  0.63544221  0.00145711  0.62643485     0.85900
N1280       N  0.66354928  0.02639306  0.64564353    -0.74800
C1281       C  0.69667214  0.02653848  0.64737376     0.86000
N1282       N  0.70165133  0.00146483  0.62975639    -0.76500
C1283       C  0.69679109  0.17110926  0.60162626     0.83500
N1284       N  0.66321929  0.13848381  0.60251032    -0.74800
C1285       C  0.63500158  0.13530099  0.62151051     0.85900
N1286       N  0.64038800  0.16495616  0.63973279    -0.74800
C1287       C  0.67384051  0.19779302  0.63901914     0.86000
N1288       N  0.70214672  0.20087647  0.61991827    -0.76500
C1289       C  0.97394957  0.17012350  0.64781405     0.83500
N1290       N  0.97416408  0.13717569  0.64606117    -0.74800
C1291       C  0.49924483  0.13419871  0.62694069     0.85900
N1292       N  0.52424617  0.16431323  0.60952553    -0.74800
C1293       C  0.52432772  0.19741476  0.61112784     0.86000
N1294       N  0.49910516  0.20034127  0.63029718    -0.76500
C1295       C  0.83056822  0.30372674  0.64736560     0.83500
N1296       N  0.86356294  0.33690326  0.64554901    -0.74800
C1297       C  0.86656921  0.36501842  0.62644929     0.85900
N1298       N  0.83643190  0.35995610  0.60912338    -0.74800
C1299       C  0.80328885  0.32692791  0.61078580     0.86000
N1300       N  0.80033558  0.29871451  0.62993933    -0.76500
C1301       C  0.52443082  0.32711407  0.63872868     0.83500
N1302       N  0.52513717  0.36058926  0.63924590    -0.74800
C1303       C  0.50079722  0.36583981  0.62097483     0.85900
N1304       N  0.97561464  0.33747416  0.60212135    -0.74800
C1305       C  0.97458523  0.30388537  0.60144521     0.86000
N1306       N  0.49904530  0.29866118  0.61979171    -0.76500
O1307       O  0.76282947  0.11399209  0.78059584    -0.82100
O1308       O  0.79685173  0.18990569  0.79558266    -0.79100
C1309       C  0.82293271  0.22356173  0.79884614     1.01400
O1310       O  0.85158154  0.23719198  0.78090012    -0.79200
O1311       O  0.89343322  0.20313147  0.79588991    -0.81800
C1312       C  0.90102441  0.17707710  0.79903517     1.05900
O1313       O  0.88603468  0.14855358  0.78095189    -0.74600
O1314       O  0.81002851  0.10675224  0.79579717    -0.74800
C1315       C  0.77633922  0.09908569  0.79879968     1.05900
O1316       O  0.77424659  0.13349401  0.71384046    -0.82100
O1317       O  0.80217523  0.20840101  0.72875814    -0.79100
C1318       C  0.83007943  0.22732042  0.71065606     1.01400
O1319       O  0.86004819  0.22629270  0.71409703    -0.79200
O1320       O  0.90681079  0.19818198  0.72905325    -0.81800
C1321       C  0.89784316  0.17034507  0.71087691     1.05900
O1322       O  0.86678951  0.14033116  0.71417227    -0.74600
O1323       O  0.79179149  0.09339156  0.72894674    -0.74700
C1324       C  0.77308278  0.10240809  0.71062666     1.05800
Cr1325     Cr  0.78791772  0.16182110  0.75474315     1.93700
Cr1326     Cr  0.87444572  0.21231368  0.75501696     1.93200
Cr1327     Cr  0.83829587  0.12577892  0.75500003     1.39100
O1328       O  0.83356093  0.16664786  0.75507052    -1.19800
O1329       O  0.72604861  0.36613988  0.78611931    -0.82100
O1330       O  0.69759356  0.29119748  0.77118589    -0.79100
C1331       C  0.66962944  0.27251244  0.78928604     1.01400
O1332       O  0.63975577  0.27368883  0.78569402    -0.79200
O1333       O  0.59363509  0.30249867  0.77073721    -0.81800
C1334       C  0.60292257  0.33028567  0.78906129     1.05900
O1335       O  0.63407027  0.36019275  0.78571972    -0.74600
O1336       O  0.70911867  0.40666000  0.77087555    -0.74800
C1337       C  0.72746891  0.39734470  0.78933474     1.05900
O1338       O  0.73770026  0.38563306  0.71934054    -0.82100
O1339       O  0.70319165  0.30979585  0.70435005    -0.79100
C1340       C  0.67686864  0.27628126  0.70097492     1.01400
O1341       O  0.64821038  0.26279944  0.71889064    -0.79200
O1342       O  0.60709783  0.29752975  0.70386191    -0.81800
C1343       C  0.59979909  0.32377726  0.70073582     1.05900
O1344       O  0.61479814  0.35216568  0.71895301    -0.74600
O1345       O  0.69074735  0.39323287  0.70404058    -0.74700
C1346       C  0.72432048  0.40055296  0.70101561     1.05800
Cr1347     Cr  0.71227757  0.33785210  0.74519694     1.93700
Cr1348     Cr  0.62569230  0.28797810  0.74476550     1.93200
Cr1349     Cr  0.66251588  0.37454539  0.74486451     1.39100
O1350       O  0.66682247  0.33344043  0.74480700    -1.19800
C1351       C  0.96547939  0.49981065  0.87446076     0.05600
C1352       C  0.96539173  0.46525583  0.87429486     0.05600
C1353       C  0.99986652  0.46520960  0.87427439     0.05600
C1354       C  0.53443032  0.49971425  0.87438862     0.05600
C1355       C  0.53451069  0.03424830  0.87453160     0.05600
C1356       C  0.50003182  0.03429992  0.87453286     0.05600
C1357       C  0.66985799  0.47323683  0.89752788     0.83500
N1358       N  0.69990630  0.49780047  0.87951786    -0.74800
C1359       C  0.69704615  0.02289846  0.86002896     0.85900
N1360       N  0.66413021  0.02325749  0.85866615    -0.74800
C1361       C  0.63417650  0.49885770  0.87662861     0.86000
N1362       N  0.63715773  0.47394592  0.89599807    -0.76500
C1363       C  0.82566715  0.02206254  0.89090907     0.83500
N1364       N  0.79761912  0.49694266  0.87154266    -0.74800
C1365       C  0.80314179  0.47261614  0.85334782     0.85900
N1366       N  0.83670063  0.47362368  0.85450334    -0.74800
C1367       C  0.86471237  0.49860434  0.87375114     0.86000
N1368       N  0.85913563  0.02277414  0.89194145    -0.76500
C1369       C  0.97709535  0.17390451  0.86033795     0.83500
N1370       N  0.97665173  0.14058194  0.85893717    -0.74800
C1371       C  0.00096918  0.13494405  0.87688297     0.85900
N1372       N  0.52587131  0.16278555  0.89633683    -0.74800
C1373       C  0.52666764  0.19623542  0.89792035     0.86000
N1374       N  0.00219681  0.20181904  0.87987829    -0.76500
C1375       C  0.66930472  0.19693439  0.85343502     0.83500
N1376       N  0.69935321  0.20255313  0.87145823    -0.74800
C1377       C  0.69665690  0.17449599  0.89068482     0.85900
N1378       N  0.66392276  0.14095463  0.89176315    -0.74800
C1379       C  0.63396860  0.13528893  0.87379250     0.86000
N1380       N  0.63677760  0.16328464  0.85465778    -0.76500
C1381       C  0.52749824  0.33034931  0.85301499     0.83500
N1382       N  0.52635157  0.36283808  0.85407152    -0.74800
C1383       C  0.00123177  0.36570760  0.87320701     0.85900
N1384       N  0.97703447  0.33584424  0.89133070    -0.73600
C1385       C  0.97786155  0.30314601  0.89040578     0.86000
N1386       N  0.00316212  0.30039893  0.87118734    -0.76500
C1387       C  0.80354847  0.32971108  0.89782110     0.83500
N1388       N  0.79791064  0.29961648  0.87981615    -0.74800
C1389       C  0.82576545  0.30250791  0.86019729     0.85900
N1390       N  0.85904943  0.33546530  0.85870630    -0.74800
C1391       C  0.86472822  0.36543124  0.87662827     0.86000
N1392       N  0.83697188  0.36244390  0.89613492    -0.76500
C1393       C  0.00031852  0.09947356  0.87548493    -0.10000
C1394       C  0.00011851  0.06987898  0.87483796    -0.11600
C1395       C  0.57008159  0.06979866  0.87474870    -0.10000
C1396       C  0.59938272  0.09953392  0.87463499    -0.11600
C1397       C  0.92979520  0.42972007  0.87450278    -0.10000
C1398       C  0.90018267  0.40030176  0.87515460    -0.11600
C1399       C  0.90034476  0.49958137  0.87456074    -0.10000
C1400       C  0.92996992  0.49984987  0.87465232    -0.11600
C1401       C  0.59933165  0.49945554  0.87528700    -0.10000
C1402       C  0.56994566  0.49966600  0.87466030    -0.11600
C1403       C  0.00015158  0.40031617  0.87400748    -0.10000
C1404       C  0.99980036  0.42963653  0.87423202    -0.11600
C1405       C  0.67172640  0.22598895  0.83233523    -0.10000
C1406       C  0.67139536  0.24814386  0.81335567    -0.11600
C1407       C  0.57667556  0.32831267  0.81306863    -0.10000
C1408       C  0.55413171  0.32790232  0.83198921    -0.11600
C1409       C  0.77402283  0.44611252  0.83224619    -0.10000
C1410       C  0.75180547  0.42361122  0.81331973    -0.11600
C1411       C  0.92821719  0.17996852  0.82263719    -0.10000
C1412       C  0.95097090  0.17918079  0.84070966    -0.11600
C1413       C  0.75197267  0.07188801  0.82236535    -0.10000
C1414       C  0.72842952  0.04910158  0.84042123    -0.11600
C1415       C  0.81990004  0.24774176  0.82244561    -0.10000
C1416       C  0.82050912  0.27113649  0.84056398    -0.11600
C1417       C  0.57293893  0.32124519  0.67699771    -0.10000
C1418       C  0.55042676  0.32212935  0.65872548    -0.11600
C1419       C  0.82820713  0.25190275  0.68686029    -0.10000
C1420       C  0.82796759  0.27437640  0.66819061    -0.11600
C1421       C  0.94717034  0.17266158  0.66857787    -0.10000
C1422       C  0.92439121  0.17233983  0.68717345    -0.11600
C1423       C  0.67962456  0.25210019  0.67725975    -0.10000
C1424       C  0.67890033  0.22881552  0.65897304    -0.11600
C1425       C  0.74854192  0.07588582  0.68687378    -0.10000
C1426       C  0.72604636  0.05317640  0.66822217    -0.11600
C1427       C  0.77206559  0.44983180  0.65896075    -0.10000
C1428       C  0.74868431  0.42735471  0.67726529    -0.11600
C1429       C  0.59951854  0.10043498  0.62235973    -0.10000
C1430       C  0.57002986  0.07088874  0.62271972    -0.11600
C1431       C  0.49933410  0.09916929  0.62514598    -0.10000
C1432       C  0.49953692  0.06983258  0.62385662    -0.11600
C1433       C  0.60035758  0.00143355  0.62469597    -0.10000
C1434       C  0.57084330  0.00128406  0.62351009    -0.11600
C1435       C  0.50141024  0.40129902  0.62171241    -0.10000
C1436       C  0.50133493  0.43075314  0.62214881    -0.11600
C1437       C  0.90159759  0.40019879  0.62465564    -0.10000
C1438       C  0.93090680  0.42982295  0.62341883    -0.11600
C1439       C  0.92991034  0.99932754  0.62240844    -0.10000
C1440       C  0.90036721  0.99922202  0.62199926    -0.11600
C1441       C  0.82047364  0.04829644  0.91030788    -0.10000
C1442       C  0.81956973  0.07127448  0.92792996    -0.11600
C1443       C  0.82682448  0.05254389  0.58103359    -0.10000
C1444       C  0.82724268  0.07551669  0.56257159    -0.11600
C1445       C  0.75208001  0.18049584  0.92757411    -0.10000
C1446       C  0.72823151  0.17972731  0.90995335    -0.11600
C1447       C  0.92866861  0.24790405  0.92761449    -0.10000
C1448       C  0.95164696  0.27168188  0.90986823    -0.11600
C1449       C  0.74853796  0.17299208  0.56240436    -0.10000
C1450       C  0.72622484  0.17365816  0.58097002    -0.11600
C1451       C  0.94756497  0.27426790  0.58095966    -0.10000
C1452       C  0.92454214  0.25176330  0.56248929    -0.11600
C1453       C  0.57630713  0.24748523  0.93781547    -0.10000
C1454       C  0.55344692  0.22528938  0.91902716    -0.11600
C1455       C  0.57347296  0.25221059  0.57370171    -0.10000
C1456       C  0.55080026  0.22878836  0.59181276    -0.11600
C1457       C  0.67168366  0.42369575  0.93737721    -0.10000
C1458       C  0.67223185  0.44649474  0.91859409    -0.11600
C1459       C  0.77457610  0.32742503  0.91899729    -0.10000
C1460       C  0.75250550  0.32821146  0.93781778    -0.11600
C1461       C  0.67825610  0.44990865  0.59111537    -0.10000
C1462       C  0.67905696  0.42722427  0.57309471    -0.11600
C1463       C  0.74841242  0.32144677  0.57358954    -0.10000
C1464       C  0.77187586  0.32212151  0.59159600    -0.11600
O1465       O  0.63406047  0.77353203  0.46491039    -0.82100
O1466       O  0.70929318  0.80252199  0.47990954    -0.79100
C1467       C  0.72802094  0.83030064  0.46161067     1.01400
O1468       O  0.72672141  0.86018808  0.46476845    -0.79200
O1469       O  0.69773292  0.90648111  0.47940431    -0.81800
C1470       C  0.66982609  0.89724506  0.46121455     1.05900
O1471       O  0.63997633  0.86601260  0.46456721    -0.74600
O1472       O  0.59370021  0.79082057  0.47979274    -0.74800
C1473       C  0.60283338  0.77210872  0.46161439     1.05900
O1474       O  0.61495781  0.76273720  0.03168214    -0.82100
O1475       O  0.69066838  0.79768431  0.04668530    -0.79100
C1476       C  0.72419048  0.82400548  0.04985831     1.01400
O1477       O  0.73767785  0.85235938  0.03159353    -0.79200
O1478       O  0.70282418  0.89322802  0.04632332    -0.81800
C1479       C  0.67652588  0.90041619  0.04943762     1.05900
O1480       O  0.64815722  0.88544555  0.03120805    -0.74600
O1481       O  0.60740306  0.80981097  0.04654387    -0.74700
C1482       C  0.60016656  0.77631130  0.04986963     1.05800
Cr1483     Cr  0.66259584  0.78797955  0.00577929     1.93700
Cr1484     Cr  0.71239237  0.87457678  0.50553857     1.93200
Cr1485     Cr  0.62580103  0.83765344  0.00553575     1.39100
O1486       O  0.66692943  0.83340494  0.00564853    -1.19800
O1487       O  0.88619692  0.73712828  0.46885473    -0.82100
O1488       O  0.81027142  0.70328762  0.45376806    -0.79100
C1489       C  0.77650292  0.67736080  0.45078112     1.01400
O1490       O  0.76289566  0.64877918  0.46879241    -0.79200
O1491       O  0.79668271  0.60663137  0.45396456    -0.81800
C1492       C  0.82260426  0.59882104  0.45107582     1.05900
O1493       O  0.85114599  0.61385253  0.46911582    -0.74600
O1494       O  0.89328027  0.68975798  0.45394865    -0.74800
C1495       C  0.90114274  0.72350943  0.45088831     1.05900
O1496       O  0.86685530  0.72621216  0.03553216    -0.82100
O1497       O  0.79194565  0.69847600  0.02048174    -0.79100
C1498       C  0.77295520  0.67072799  0.03871765     1.01400
O1499       O  0.77381661  0.64062969  0.03551547    -0.79200
O1500       O  0.80154299  0.59339066  0.02076839    -0.81800
C1501       C  0.82933725  0.60222903  0.03896745     1.05900
O1502       O  0.85939600  0.63326988  0.03573276    -0.74600
O1503       O  0.90667111  0.70822077  0.02069382    -0.74700
C1504       C  0.89785053  0.72718255  0.03884204     1.05800
Cr1505     Cr  0.83841850  0.71235565  0.49461948     1.93700
Cr1506     Cr  0.78762845  0.62585684  0.49471151     1.93200
Cr1507     Cr  0.87410332  0.66165571  0.49481081     1.39100
O1508       O  0.83337796  0.66661821  0.49456084    -1.19800
C1509       C  0.96568584  0.49983664  0.12266153     0.05600
C1510       C  0.49997118  0.53457639  0.12290191     0.05600
C1511       C  0.53470605  0.53509216  0.12280147     0.05600
C1512       C  0.53514393  0.50082628  0.12271554     0.05600
C1513       C  0.50088488  0.96606016  0.12248209     0.05600
C1514       C  0.96616807  0.96557340  0.12260932     0.05600
C1515       C  0.82952159  0.52563318  0.10159179     0.83500
N1516       N  0.86217056  0.52478359  0.10233281    -0.74800
C1517       C  0.86545416  0.49971909  0.12125947     0.85900
N1518       N  0.83585827  0.97528736  0.13952385    -0.74800
C1519       C  0.80301035  0.97582229  0.13893785     0.86000
N1520       N  0.79985945  0.50111916  0.11994278    -0.76500
C1521       C  0.67344802  0.97637237  0.11046215     0.83500
N1522       N  0.64046093  0.97652117  0.10887613    -0.74800
C1523       C  0.63545180  0.50146672  0.12643832     0.85900
N1524       N  0.66356530  0.52640520  0.14564117    -0.74800
C1525       C  0.69668536  0.52654421  0.14736920     0.86000
N1526       N  0.70165518  0.50146213  0.12975624    -0.76500
C1527       C  0.69677492  0.67112784  0.10160877     0.83500
N1528       N  0.66320851  0.63849695  0.10249631    -0.74800
C1529       C  0.63498687  0.63531085  0.12149279     0.85900
N1530       N  0.64036361  0.66496689  0.13970809    -0.74800
C1531       C  0.67381023  0.69780861  0.13899100     0.86000
N1532       N  0.70212132  0.70089638  0.11989432    -0.76500
C1533       C  0.97396432  0.67014658  0.14780933     0.83500
N1534       N  0.97417454  0.63719657  0.14606141    -0.74800
C1535       C  0.49924275  0.63419957  0.12696103     0.85900
N1536       N  0.52424533  0.66431284  0.10954502    -0.74800
C1537       C  0.52432317  0.69741309  0.11113978     0.86000
N1538       N  0.49909550  0.70033943  0.13030248    -0.76500
C1539       C  0.83057211  0.80371283  0.14735548     0.83500
N1540       N  0.86356941  0.83688698  0.14553847    -0.74800
C1541       C  0.86657841  0.86500491  0.12644079     0.85900
N1542       N  0.83644089  0.85994771  0.10911792    -0.74800
C1543       C  0.80329537  0.82692196  0.11078105     0.86000
N1544       N  0.80033950  0.79870603  0.12993239    -0.76500
C1545       C  0.52445239  0.82712755  0.13871078     0.83500
N1546       N  0.52515990  0.86060290  0.13922461    -0.74800
C1547       C  0.50082188  0.86585289  0.12095109     0.85900
N1548       N  0.97563365  0.83747782  0.10211377    -0.74800
C1549       C  0.97460383  0.80388873  0.10144202     0.86000
N1550       N  0.49906680  0.79867286  0.11977531    -0.76500
O1551       O  0.76284166  0.61398226  0.28058991    -0.82100
O1552       O  0.79685241  0.68989383  0.29558029    -0.79100
C1553       C  0.82292819  0.72355233  0.29884290     1.01400
O1554       O  0.85157590  0.73718765  0.28089578    -0.79200
O1555       O  0.89343625  0.70313860  0.29589195    -0.81800
C1556       C  0.90103205  0.67708751  0.29903831     1.05900
O1557       O  0.88605042  0.64856553  0.28095297    -0.74600
O1558       O  0.81004336  0.60674690  0.29579151    -0.74800
C1559       C  0.77635294  0.59907749  0.29879367     1.05900
O1560       O  0.77426116  0.63348879  0.21383619    -0.82100
O1561       O  0.80217684  0.70839153  0.22875496    -0.79100
C1562       C  0.83008000  0.72731135  0.21065185     1.01400
O1563       O  0.86005141  0.72628928  0.21409478    -0.79200
O1564       O  0.90682614  0.69819659  0.22905769    -0.81800
C1565       C  0.89786359  0.67036393  0.21087793     1.05900
O1566       O  0.86681325  0.64034603  0.21417111    -0.74600
O1567       O  0.79181633  0.59339278  0.22893824    -0.74700
C1568       C  0.77310409  0.60240659  0.21061968     1.05800
Cr1569     Cr  0.78792502  0.66181253  0.25473959     1.93700
Cr1570     Cr  0.87445030  0.71231700  0.25501694     1.93200
Cr1571     Cr  0.83831523  0.62578377  0.25499662     1.39100
O1572       O  0.83357118  0.66664726  0.25506864    -1.19800
O1573       O  0.72604310  0.86611702  0.28611964    -0.82100
O1574       O  0.69756793  0.79117488  0.27117389    -0.79100
C1575       C  0.66960972  0.77250341  0.28928318     1.01400
O1576       O  0.63974093  0.77369017  0.28569815    -0.79200
O1577       O  0.59362586  0.80250532  0.27074105    -0.81800
C1578       C  0.60291816  0.83029169  0.28906660     1.05900
O1579       O  0.63406920  0.86019501  0.28572683    -0.74600
O1580       O  0.70911996  0.90664698  0.27088774    -0.74800
C1581       C  0.72746747  0.89732313  0.28934261     1.05900
O1582       O  0.73769468  0.88562262  0.21934460    -0.82100
O1583       O  0.70316201  0.80979081  0.20434049    -0.79100
C1584       C  0.67683711  0.77627758  0.20096631     1.01400
O1585       O  0.64818783  0.76279330  0.21889285    -0.79200
O1586       O  0.60708837  0.79753427  0.20386777    -0.81800
C1587       C  0.59979915  0.82378766  0.20073926     1.05900
O1588       O  0.61480023  0.85217579  0.21895738    -0.74600
O1589       O  0.69074836  0.89323429  0.20404914    -0.74700
C1590       C  0.72431878  0.90054755  0.20102165     1.05800
Cr1591     Cr  0.71226208  0.83783721  0.24519328     1.93700
Cr1592     Cr  0.62567775  0.78797831  0.24477003     1.93200
Cr1593     Cr  0.66251588  0.87454643  0.24487241     1.39100
O1594       O  0.66681231  0.83343664  0.24481071    -1.19800
C1595       C  0.96547869  0.99979930  0.37446973     0.05600
C1596       C  0.96539308  0.96524570  0.37430235     0.05600
C1597       C  0.99986926  0.96520257  0.37427885     0.05600
C1598       C  0.53442855  0.99971808  0.37437504     0.05600
C1599       C  0.53450761  0.53424319  0.37451746     0.05600
C1600       C  0.50002840  0.53429393  0.37451721     0.05600
C1601       C  0.66984808  0.97322843  0.39751138     0.83500
N1602       N  0.69989953  0.99779194  0.37950480    -0.74800
C1603       C  0.69705185  0.52289478  0.36002083     0.85900
N1604       N  0.66413759  0.52325794  0.35865794    -0.74800
C1605       C  0.63417454  0.99885853  0.37661228     0.86000
N1606       N  0.63715011  0.97394195  0.39598007    -0.76500
C1607       C  0.82566666  0.52206618  0.39089509     0.83500
N1608       N  0.79761750  0.99692618  0.37154442    -0.74800
C1609       C  0.80313857  0.97259059  0.35336063     0.85900
N1610       N  0.83669694  0.97359783  0.35452178    -0.74800
C1611       C  0.86470963  0.99858659  0.37376430     0.86000
N1612       N  0.85913550  0.52277874  0.39192604    -0.76500
C1613       C  0.97709653  0.67391604  0.36034622     0.83500
N1614       N  0.97664766  0.64059065  0.35895157    -0.74800
C1615       C  0.00096740  0.63495469  0.37689582     0.85900
N1616       N  0.52586626  0.66277807  0.39633159    -0.74800
C1617       C  0.52666328  0.69622831  0.39792109     0.86000
N1618       N  0.00220512  0.70183523  0.37987856    -0.76500
C1619       C  0.66928759  0.69693422  0.35343613     0.83500
N1620       N  0.69933669  0.70255409  0.37145860    -0.74800
C1621       C  0.69664233  0.67449608  0.39068250     0.85900
N1622       N  0.66391046  0.64095309  0.39175859    -0.74800
C1623       C  0.63395618  0.63528689  0.37378831     0.86000
N1624       N  0.63676260  0.66328312  0.35465628    -0.76500
C1625       C  0.52749632  0.83035585  0.35302077     0.83500
N1626       N  0.52634894  0.86284380  0.35407941    -0.74800
C1627       C  0.00123852  0.86570525  0.37321364     0.85900
N1628       N  0.97703604  0.83584022  0.39133262    -0.73600
C1629       C  0.97786166  0.80314161  0.39040684     0.86000
N1630       N  0.00316542  0.80039530  0.37119240    -0.76500
C1631       C  0.80354320  0.82970586  0.39781046     0.83500
N1632       N  0.79790448  0.79961084  0.37980599    -0.74800
C1633       C  0.82576109  0.80249917  0.36019144     0.85900
N1634       N  0.85904819  0.83545404  0.35870428    -0.74800
C1635       C  0.86472779  0.86542071  0.37662595     0.86000
N1636       N  0.83696924  0.86243613  0.39612819    -0.76500
C1637       C  0.00031306  0.59948203  0.37550197    -0.10000
C1638       C  0.00011186  0.56988676  0.37485389    -0.11600
C1639       C  0.57007601  0.56979365  0.37473611    -0.10000
C1640       C  0.59937437  0.59953031  0.37462619    -0.11600
C1641       C  0.92979747  0.92970824  0.37450868    -0.10000
C1642       C  0.90018480  0.90028948  0.37515669    -0.11600
C1643       C  0.90034258  0.99956576  0.37457658    -0.10000
C1644       C  0.92996847  0.99983613  0.37466643    -0.11600
C1645       C  0.59933158  0.99946090  0.37526940    -0.10000
C1646       C  0.56994548  0.99967185  0.37464373    -0.11600
C1647       C  0.00015822  0.90031272  0.37401340    -0.10000
C1648       C  0.99980558  0.92963177  0.37423711    -0.11600
C1649       C  0.67170817  0.72598692  0.33233640    -0.10000
C1650       C  0.67137603  0.74813850  0.31335473    -0.11600
C1651       C  0.57667331  0.82832193  0.31307384    -0.10000
C1652       C  0.55412983  0.82791118  0.33199450    -0.11600
C1653       C  0.77402101  0.94608220  0.33226005    -0.10000
C1654       C  0.75180514  0.92358213  0.31333180    -0.11600
C1655       C  0.92822112  0.67998070  0.32264404    -0.10000
C1656       C  0.95097260  0.67919210  0.34071810    -0.11600
C1657       C  0.75198599  0.57187996  0.32235962    -0.10000
C1658       C  0.72843851  0.54909598  0.34041444    -0.11600
C1659       C  0.81989178  0.74772993  0.32244214    -0.10000
C1660       C  0.82050282  0.77112643  0.34055926    -0.11600
C1661       C  0.57294785  0.82126112  0.17699559    -0.10000
C1662       C  0.55044198  0.82214317  0.15871517    -0.11600
C1663       C  0.82820456  0.75188884  0.18685320    -0.10000
C1664       C  0.82796697  0.77436132  0.16818118    -0.11600
C1665       C  0.94719066  0.67269179  0.16857429    -0.10000
C1666       C  0.92441320  0.67236800  0.18717249    -0.11600
C1667       C  0.67958405  0.75210230  0.17724092    -0.10000
C1668       C  0.67886263  0.72882619  0.15894636    -0.11600
C1669       C  0.74856448  0.57588525  0.18686607    -0.10000
C1670       C  0.72606494  0.55317958  0.16821483    -0.11600
C1671       C  0.77206406  0.94982059  0.15896399    -0.10000
C1672       C  0.74868331  0.92734624  0.17727025    -0.11600
C1673       C  0.59951232  0.60043884  0.12235141    -0.10000
C1674       C  0.57002815  0.57088982  0.12272401    -0.11600
C1675       C  0.49933309  0.59916980  0.12517118    -0.10000
C1676       C  0.49953638  0.56983296  0.12388165    -0.11600
C1677       C  0.60036657  0.50144383  0.12470557    -0.10000
C1678       C  0.57084939  0.50128971  0.12352466    -0.11600
C1679       C  0.50143091  0.90130946  0.12169286    -0.10000
C1680       C  0.50135169  0.93076109  0.12213900    -0.11600
C1681       C  0.90160767  0.90018561  0.12465040    -0.10000
C1682       C  0.93091506  0.92981234  0.12341708    -0.11600
C1683       C  0.92990509  0.49933700  0.12243957    -0.10000
C1684       C  0.90036053  0.49922889  0.12202679    -0.11600
C1685       C  0.82047398  0.54830153  0.41029123    -0.10000
C1686       C  0.81956714  0.57127776  0.42791282    -0.11600
C1687       C  0.82680444  0.55253392  0.08105295    -0.10000
C1688       C  0.82722108  0.57550725  0.06259234    -0.11600
C1689       C  0.75206775  0.68049302  0.42756450    -0.10000
C1690       C  0.72821812  0.67972670  0.40994740    -0.11600
C1691       C  0.92865758  0.74789826  0.42760526    -0.10000
C1692       C  0.95164101  0.77167608  0.40986306    -0.11600
C1693       C  0.74853224  0.67300887  0.06240184    -0.10000
C1694       C  0.72621493  0.67367818  0.08096038    -0.11600
C1695       C  0.94757602  0.77426543  0.08096505    -0.10000
C1696       C  0.92454659  0.75175803  0.06250018    -0.11600
C1697       C  0.57630182  0.74747840  0.43781800    -0.10000
C1698       C  0.55344205  0.72527950  0.41903079    -0.11600
C1699       C  0.57346674  0.75220729  0.07371028    -0.10000
C1700       C  0.55079535  0.72878493  0.09182235    -0.11600
C1701       C  0.67167442  0.92368812  0.43736082    -0.10000
C1702       C  0.67221877  0.94648465  0.41857727    -0.11600
C1703       C  0.77457006  0.82742163  0.41898414    -0.10000
C1704       C  0.75250035  0.82820908  0.43780478    -0.11600
C1705       C  0.67825343  0.94990637  0.09112324    -0.10000
C1706       C  0.67905286  0.92721956  0.07310552    -0.11600
C1707       C  0.74841424  0.82144950  0.07359614    -0.10000
C1708       C  0.77188084  0.82212175  0.09159707    -0.11600
O1709       O  0.63403700  0.77351745  0.96490195    -0.82100
O1710       O  0.70927139  0.80251890  0.97988694    -0.79100
C1711       C  0.72799330  0.83030125  0.96158966     1.01400
O1712       O  0.72669171  0.86018678  0.96475559    -0.79200
O1713       O  0.69770038  0.90647157  0.97941144    -0.81800
C1714       C  0.66979909  0.89723504  0.96121524     1.05900
O1715       O  0.63995125  0.86599912  0.96456149    -0.74600
O1716       O  0.59367577  0.79080551  0.97978132    -0.74800
C1717       C  0.60281371  0.77210047  0.96159994     1.05900
O1718       O  0.61496753  0.76275362  0.53168420    -0.82100
O1719       O  0.69067302  0.79769749  0.54670145    -0.79100
C1720       C  0.72419338  0.82401953  0.54988069     1.01400
O1721       O  0.73769070  0.85237033  0.53161208    -0.79200
O1722       O  0.70285548  0.89325805  0.54632332    -0.81800
C1723       C  0.67655618  0.90044450  0.54943985     1.05900
O1724       O  0.64818598  0.88547025  0.53121182    -0.74600
O1725       O  0.60743078  0.80983524  0.54655364    -0.74700
C1726       C  0.60018042  0.77633043  0.54987302     1.05800
Cr1727     Cr  0.66261254  0.78799242  0.50579086     1.93700
Cr1728     Cr  0.71236558  0.87456329  0.00553299     1.93200
Cr1729     Cr  0.62582784  0.83767319  0.50554323     1.39100
O1730       O  0.66695362  0.83342130  0.50565593    -1.19800
O1731       O  0.88622264  0.73714645  0.96886325    -0.82100
O1732       O  0.81029938  0.70331671  0.95376294    -0.79100
C1733       C  0.77653077  0.67739060  0.95076958     1.01400
O1734       O  0.76291902  0.64880832  0.96878110    -0.79200
O1735       O  0.79670491  0.60665650  0.95396856    -0.81800
C1736       C  0.82262468  0.59884327  0.95108393     1.05900
O1737       O  0.85116067  0.61386825  0.96913097    -0.74600
O1738       O  0.89330210  0.68977136  0.95396406    -0.74800
C1739       C  0.90116831  0.72352336  0.95090169     1.05900
O1740       O  0.86684134  0.72618908  0.53552683    -0.82100
O1741       O  0.79192878  0.69844476  0.52048823    -0.79100
C1742       C  0.77294525  0.67069699  0.53872603     1.01400
O1743       O  0.77380905  0.64060020  0.53552102    -0.79200
O1744       O  0.80153566  0.59336567  0.52075818    -0.81800
C1745       C  0.82933278  0.60220452  0.53895292     1.05900
O1746       O  0.85939030  0.63324706  0.53571737    -0.74600
O1747       O  0.90665800  0.70820272  0.52067911    -0.74700
C1748       C  0.89783907  0.72716358  0.53882999     1.05800
Cr1749     Cr  0.83843944  0.71238104  0.99462037     1.93700
Cr1750     Cr  0.78764352  0.62588334  0.99471145     1.93200
Cr1751     Cr  0.87411704  0.66167354  0.99482517     1.39100
O1752       O  0.83339447  0.66664165  0.99456595    -1.19800
C1753       C  0.96567874  0.49982266  0.62263643     0.05600
C1754       C  0.49996287  0.53456845  0.62286824     0.05600
C1755       C  0.53469744  0.53508383  0.62277924     0.05600
C1756       C  0.53513302  0.50081581  0.62270616     0.05600
C1757       C  0.50088160  0.96606688  0.62244881     0.05600
C1758       C  0.96617389  0.96558603  0.62258442     0.05600
C1759       C  0.82950362  0.52559364  0.60156619     0.83500
N1760       N  0.86215235  0.52474476  0.60231023    -0.74800
C1761       C  0.86543527  0.49968129  0.62123802     0.85900
N1762       N  0.83589673  0.97535329  0.63953167    -0.74800
C1763       C  0.80305305  0.97589582  0.63895405     0.86000
N1764       N  0.79983968  0.50107947  0.61991575    -0.76500
C1765       C  0.67345523  0.97637176  0.61049320     0.83500
N1766       N  0.64046333  0.97651138  0.60890586    -0.74800
C1767       C  0.63543853  0.50145879  0.62640564     0.85900
N1768       N  0.66354806  0.52639244  0.64561309    -0.74800
C1769       C  0.69666869  0.52653384  0.64734030     0.86000
N1770       N  0.70164312  0.50145806  0.62972236    -0.76500
C1771       C  0.69677263  0.67111224  0.60161511     0.83500
N1772       N  0.66320445  0.63848415  0.60250512    -0.74800
C1773       C  0.63497984  0.63530773  0.62149192     0.85900
N1774       N  0.64035623  0.66497274  0.63969592    -0.74800
C1775       C  0.67380615  0.69781289  0.63897608     0.86000
N1776       N  0.70211894  0.70088907  0.61988832    -0.76500
C1777       C  0.97394679  0.67012411  0.64780402     0.83500
N1778       N  0.97416650  0.63717895  0.64605127    -0.74800
C1779       C  0.49922981  0.63419110  0.62691482     0.85900
N1780       N  0.52423086  0.66431075  0.60950393    -0.74800
C1781       C  0.52431085  0.69741151  0.61111365     0.86000
N1782       N  0.49908677  0.70033177  0.63028619    -0.76500
C1783       C  0.83057818  0.80373042  0.64736131     0.83500
N1784       N  0.86357949  0.83690064  0.64553324    -0.74800
C1785       C  0.86658223  0.86502027  0.62644032     0.85900
N1786       N  0.83643598  0.85996788  0.60913415    -0.74800
C1787       C  0.80328834  0.82694627  0.61080926     0.86000
N1788       N  0.80033809  0.79872958  0.62995471    -0.76500
C1789       C  0.52450964  0.82718221  0.63866113     0.83500
N1790       N  0.52520559  0.86065184  0.63916330    -0.74800
C1791       C  0.50084728  0.86587806  0.62089729     0.85900
N1792       N  0.97563282  0.83748125  0.60206459    -0.74800
C1793       C  0.97460282  0.80389180  0.60140880     0.86000
N1794       N  0.49911442  0.79870915  0.61974589    -0.76500
O1795       O  0.76279547  0.61397175  0.78058069    -0.82100
O1796       O  0.79681378  0.68988846  0.79555988    -0.79100
C1797       C  0.82289230  0.72354651  0.79881920     1.01400
O1798       O  0.85154120  0.73717389  0.78087337    -0.79200
O1799       O  0.89339224  0.70311698  0.79588015    -0.81800
C1800       C  0.90098815  0.67706638  0.79902870     1.05900
O1801       O  0.88600159  0.64853975  0.78094870    -0.74600
O1802       O  0.80999326  0.60672956  0.79578239    -0.74800
C1803       C  0.77630480  0.59906566  0.79878547     1.05900
O1804       O  0.77421783  0.63346594  0.71382396    -0.82100
O1805       O  0.80214601  0.70837470  0.72873185    -0.79100
C1806       C  0.83005418  0.72729332  0.71063291     1.01400
O1807       O  0.86001977  0.72626110  0.71407641    -0.79200
O1808       O  0.90678835  0.69816389  0.72904915    -0.81800
C1809       C  0.89782932  0.67032817  0.71087360     1.05900
O1810       O  0.86677510  0.64031301  0.71416492    -0.74600
O1811       O  0.79177216  0.59336997  0.72892949    -0.74700
C1812       C  0.77306268  0.60238447  0.71060857     1.05800
Cr1813     Cr  0.78788497  0.66179759  0.75472334     1.93700
Cr1814     Cr  0.87441196  0.71229232  0.75500172     1.93200
Cr1815     Cr  0.83826921  0.62575924  0.75498904     1.39100
O1816       O  0.83352920  0.66662548  0.75505527    -1.19800
O1817       O  0.72606186  0.86612882  0.78610658    -0.82100
O1818       O  0.69757611  0.79118676  0.77114899    -0.79100
C1819       C  0.66961004  0.77250569  0.78924928     1.01400
O1820       O  0.63974342  0.77369724  0.78566036    -0.79200
O1821       O  0.59364400  0.80253580  0.77070353    -0.81800
C1822       C  0.60293611  0.83031251  0.78904034     1.05900
O1823       O  0.63409043  0.86021442  0.78571213    -0.74600
O1824       O  0.70914415  0.90666737  0.77088817    -0.74800
C1825       C  0.72748776  0.89733472  0.78933862     1.05900
O1826       O  0.73772574  0.88565325  0.71933515    -0.82100
O1827       O  0.70318736  0.80982033  0.70431534    -0.79100
C1828       C  0.67685775  0.77630981  0.70093379     1.01400
O1829       O  0.64820525  0.76282754  0.71885531    -0.79200
O1830       O  0.60713179  0.79759354  0.70383057    -0.81800
C1831       C  0.59984793  0.82385094  0.70070658     1.05900
O1832       O  0.61483911  0.85222769  0.71893764    -0.74600
O1833       O  0.69078980  0.89328724  0.70404838    -0.74700
C1834       C  0.72435887  0.90059671  0.70102261     1.05800
Cr1835     Cr  0.71228340  0.83785912  0.74517459     1.93700
Cr1836     Cr  0.62569855  0.78801198  0.74473388     1.93200
Cr1837     Cr  0.66254653  0.87458124  0.74486310     1.39100
O1838       O  0.66683748  0.83346717  0.74478977    -1.19800
C1839       C  0.96547927  0.99979194  0.87446254     0.05600
C1840       C  0.96538766  0.96523547  0.87428589     0.05600
C1841       C  0.99986180  0.96518827  0.87424938     0.05600
C1842       C  0.53443036  0.99970387  0.87435851     0.05600
C1843       C  0.53450964  0.53425884  0.87455372     0.05600
C1844       C  0.50003032  0.53430968  0.87452896     0.05600
C1845       C  0.66985023  0.97322671  0.89750335     0.83500
N1846       N  0.69990947  0.99779692  0.87950683    -0.74800
C1847       C  0.69703280  0.52289768  0.86004221     0.85900
N1848       N  0.66411743  0.52325863  0.85869487    -0.74800
C1849       C  0.63417851  0.99884962  0.87658651     0.86000
N1850       N  0.63715009  0.97393411  0.89595810    -0.76500
C1851       C  0.82568152  0.52210227  0.89087762     0.83500
N1852       N  0.79761062  0.99690080  0.87157079    -0.74800
C1853       C  0.80314187  0.97257853  0.85337797     0.85900
N1854       N  0.83670376  0.97359347  0.85453761    -0.74800
C1855       C  0.86470952  0.99857585  0.87378853     0.86000
N1856       N  0.85914652  0.52280682  0.89190549    -0.76500
C1857       C  0.97707965  0.67391682  0.86031667     0.83500
N1858       N  0.97664183  0.64059722  0.85891204    -0.74800
C1859       C  0.00096156  0.63496179  0.87685681     0.85900
N1860       N  0.52587708  0.66280366  0.89629078    -0.74800
C1861       C  0.52667561  0.69625473  0.89787138     0.86000
N1862       N  0.00217659  0.70183046  0.87986018    -0.76500
C1863       C  0.66929344  0.69693436  0.85341147     0.83500
N1864       N  0.69935274  0.70256204  0.87142488    -0.74800
C1865       C  0.69666544  0.67451658  0.89066333     0.85900
N1866       N  0.66392937  0.64097825  0.89176253    -0.74800
C1867       C  0.63396476  0.63530322  0.87380228     0.86000
N1868       N  0.63676497  0.66328710  0.85465615    -0.76500
C1869       C  0.52750662  0.83035476  0.85299558     0.83500
N1870       N  0.52635612  0.86284094  0.85405533    -0.74800
C1871       C  0.00123426  0.86569575  0.87320190     0.85900
N1872       N  0.97704261  0.83583675  0.89133136    -0.73600
C1873       C  0.97787828  0.80314331  0.89041470     0.86000
N1874       N  0.00318022  0.80039581  0.87119979    -0.76500
C1875       C  0.80351557  0.82971289  0.89778457     0.83500
N1876       N  0.79787346  0.79961888  0.87977643    -0.74800
C1877       C  0.82573257  0.80250270  0.86016713     0.85900
N1878       N  0.85902575  0.83545260  0.85868938    -0.74800
C1879       C  0.86470927  0.86541854  0.87661445     0.86000
N1880       N  0.83694787  0.86243810  0.89611122    -0.76500
C1881       C  0.00031150  0.59949145  0.87546314    -0.10000
C1882       C  0.00011379  0.56989768  0.87482786    -0.11600
C1883       C  0.57007976  0.56981050  0.87477952    -0.10000
C1884       C  0.59937946  0.59954763  0.87466195    -0.11600
C1885       C  0.92978834  0.92969982  0.87449950    -0.10000
C1886       C  0.90017181  0.90028397  0.87515016    -0.11600
C1887       C  0.90034645  0.99956355  0.87459591    -0.10000
C1888       C  0.92997218  0.99983407  0.87467515    -0.11600
C1889       C  0.59933394  0.99944773  0.87523469    -0.10000
C1890       C  0.56994623  0.99965538  0.87461239    -0.11600
C1891       C  0.00014626  0.90029810  0.87399205    -0.10000
C1892       C  0.99979331  0.92961632  0.87420917    -0.11600
C1893       C  0.67170361  0.72597751  0.83230038    -0.10000
C1894       C  0.67136822  0.74812858  0.81331735    -0.11600
C1895       C  0.57668804  0.82833334  0.81304767    -0.10000
C1896       C  0.55414200  0.82791495  0.83196916    -0.11600
C1897       C  0.77403194  0.94607720  0.83226910    -0.10000
C1898       C  0.75182135  0.92358365  0.81333460    -0.11600
C1899       C  0.92818627  0.67996778  0.82262810    -0.10000
C1900       C  0.95094778  0.67918765  0.84069518    -0.11600
C1901       C  0.75194025  0.57187360  0.82235580    -0.10000
C1902       C  0.72840438  0.54909341  0.84042018    -0.11600
C1903       C  0.81985881  0.74773169  0.82241427    -0.10000
C1904       C  0.82047145  0.77113013  0.84053119    -0.11600
C1905       C  0.57301162  0.82133845  0.67695403    -0.10000
C1906       C  0.55050943  0.82221713  0.65866735    -0.11600
C1907       C  0.82819510  0.75188586  0.68684168    -0.10000
C1908       C  0.82797332  0.77437364  0.66817883    -0.11600
C1909       C  0.94717037  0.67265932  0.66857695    -0.10000
C1910       C  0.92438659  0.67232870  0.68717402    -0.11600
C1911       C  0.67959970  0.75213128  0.67720780    -0.10000
C1912       C  0.67886431  0.72884194  0.65892030    -0.11600
C1913       C  0.74853172  0.57586581  0.68685044    -0.10000
C1914       C  0.72604148  0.55316309  0.66819281    -0.11600
C1915       C  0.77210991  0.94989522  0.65898263    -0.10000
C1916       C  0.74873044  0.92741144  0.67728413    -0.11600
C1917       C  0.59950252  0.60043599  0.62234771    -0.10000
C1918       C  0.57002016  0.57088334  0.62270979    -0.11600
C1919       C  0.49932315  0.59916265  0.62511599    -0.10000
C1920       C  0.49952740  0.56982571  0.62383112    -0.11600
C1921       C  0.60035258  0.50143174  0.62467872    -0.10000
C1922       C  0.57083634  0.50127827  0.62350732    -0.11600
C1923       C  0.50143590  0.90132313  0.62163506    -0.10000
C1924       C  0.50134466  0.93076762  0.62208812    -0.11600
C1925       C  0.90161286  0.90019886  0.62463674    -0.10000
C1926       C  0.93091858  0.92982665  0.62339353    -0.11600
C1927       C  0.92989528  0.49931748  0.62241891    -0.10000
C1928       C  0.90034502  0.49919796  0.62200878    -0.11600
C1929       C  0.82049441  0.54833446  0.91028438    -0.10000
C1930       C  0.81959135  0.57130597  0.92791519    -0.11600
C1931       C  0.82679273  0.55249980  0.58103059    -0.10000
C1932       C  0.82721787  0.57548032  0.56257400    -0.11600
C1933       C  0.75209983  0.68052384  0.92754515    -0.10000
C1934       C  0.72825011  0.67975587  0.90992456    -0.11600
C1935       C  0.92868557  0.74790746  0.92762064    -0.10000
C1936       C  0.95166675  0.77168262  0.90987698    -0.11600
C1937       C  0.74852662  0.67297713  0.56241469    -0.10000
C1938       C  0.72621235  0.67365252  0.58097269    -0.11600
C1939       C  0.94757333  0.77425852  0.58094064    -0.10000
C1940       C  0.92454024  0.75174432  0.56248226    -0.11600
C1941       C  0.57629395  0.74748884  0.93778849    -0.10000
C1942       C  0.55344502  0.72530330  0.91898768    -0.11600
C1943       C  0.57346813  0.75222296  0.57370487    -0.10000
C1944       C  0.55078765  0.72879319  0.59180706    -0.11600
C1945       C  0.67165462  0.92368065  0.93736031    -0.10000
C1946       C  0.67221237  0.94648129  0.91857371    -0.11600
C1947       C  0.77454060  0.82743139  0.91895526    -0.10000
C1948       C  0.75247075  0.82821664  0.93777741    -0.11600
C1949       C  0.67827493  0.94992095  0.59114172    -0.10000
C1950       C  0.67908027  0.92724421  0.57311343    -0.11600
C1951       C  0.74840517  0.82146739  0.57362998    -0.10000
C1952       C  0.77186984  0.82214468  0.59163422    -0.11600
loop_ 
_geom_bond_atom_site_label_1 
_geom_bond_atom_site_label_2 
_geom_bond_distance 
_geom_bond_site_symmetry_2 
_ccdc_geom_bond_type 
O1            C9   1.261       .  A
O1         Cr263   1.989       .  S
O2            C3   1.265       .  A
O2         Cr263   2.015       .  S
C3            O4   1.262       .  A
C3          C240   1.449       .  S
O4          Cr20   1.990       .  S
O5            C6   1.265       .  A
O5          Cr20   2.016       .  S
C6            O7   1.261       .  A
C6          C237   1.448       .  S
O7         Cr265   1.989       .  S
O8            C9   1.265       .  A
O8         Cr265   2.015       .  S
C9          C233   1.448       .  S
O10          C18   1.265       .  A
O10         Cr19   2.012       .  S
O11          C12   1.261       .  A
O11         Cr19   1.990       .  S
C12          O13   1.265       .  A
C12         C243   1.446       .  S
O13        Cr264   2.012       .  S
O14          C15   1.261       .  A
O14        Cr264   1.990       .  S
C15          O16   1.265       .  A
C15         C242   1.446       .  S
O16         Cr21   2.011       .  S
O17          C18   1.261       .  A
O17         Cr21   1.990       .  S
C18         C235   1.446       .  S
Cr19        O245   1.989   1_554  S
Cr19        O246   2.015   1_554  S
Cr19         O22   1.782       .  S
Cr20        O257   2.012       .  S
Cr20        O258   1.990       .  S
Cr20        O266   1.782       .  S
Cr21        O251   1.989   1_554  S
Cr21        O252   2.015   1_554  S
Cr21         O22   1.783       .  S
O22        Cr264   1.782       .  S
O23          C31   1.265       .  A
O23         Cr41   2.012       .  S
O24          C25   1.262       .  A
O24         Cr41   1.992       .  S
C25          O26   1.265       .  A
C25         C225   1.448       .  S
O26         Cr42   2.012       .  S
O27          C28   1.262       .  A
O27         Cr42   1.992       .  S
C28          O29   1.265       .  A
C28         C222   1.447       .  S
O29         Cr43   2.011       .  S
O30          C31   1.262       .  A
O30         Cr43   1.992       .  S
C31         C227   1.448       .  S
O32          C40   1.261       .  A
O32        Cr285   1.988   1_554  S
O33          C34   1.264       .  A
O33        Cr285   2.013   1_554  S
C34          O35   1.261       .  A
C34         C229   1.447       .  S
O35        Cr286   1.989   1_554  S
O36          C37   1.264       .  A
O36        Cr286   2.014   1_554  S
C37          O38   1.261       .  A
C37         C224   1.447       .  S
O38        Cr287   1.988   1_554  S
O39          C40   1.264       .  A
O39        Cr287   2.013   1_554  S
C40         C232   1.446       .  S
Cr41        O276   1.988       .  S
Cr41        O277   2.013       .  S
Cr41         O44   1.783       .  S
Cr42        O279   1.989       .  S
Cr42        O280   2.014       .  S
Cr42         O44   1.783       .  S
Cr43        O282   1.988       .  S
Cr43        O283   2.013       .  S
Cr43         O44   1.783       .  S
C45         C219   1.459       .  S
C45        C1022   1.416   1_565  A
C45         C538   1.416       .  A
C46         C212   1.457       .  S
C46          C47   1.416   1_655  A
C46        C1021   1.416   1_545  A
C47         C210   1.459       .  S
C47          C48   1.416       .  A
C48         C214   1.457       .  S
C48         C537   1.416   1_545  A
C49         C216   1.459       .  S
C49         C536   1.416       .  A
C49        C1026   1.416   1_455  A
C50         C218   1.457       .  S
C50         C533   1.416       .  A
C50        C1025   1.416       .  A
C51         C223   1.447       .  S
C51          N52   1.359       .  A
C51          N56   1.363       .  A
N52          C53   1.358   1_545  A
C53         C220   1.444       .  S
C53         N542   1.358       .  A
N54          C55   1.360       .  A
N54         C541   1.358       .  A
C55         C207   1.449       .  S
C55         N544   1.364       .  A
N56         C543   1.364   1_545  A
C57         C241   1.446       .  S
C57          N58   1.359       .  A
C57         N550   1.363       .  A
N58         C547   1.358       .  A
C59         C213   1.442       .  S
C59          N60   1.357       .  A
C59         N546   1.358   1_545  A
N60          C61   1.359       .  A
C61         C206   1.446       .  S
C61          N62   1.363       .  A
N62         C545   1.363   1_545  A
C63         C230   1.447       .  S
C63          N64   1.359       .  A
C63          N68   1.364       .  A
N64          C65   1.357       .  A
C65         C209   1.443       .  S
C65          N66   1.358       .  A
N66          C67   1.360       .  A
C67         C204   1.449       .  S
C67          N68   1.364       .  A
C69         C201   1.447       .  S
C69          N70   1.359       .  A
C69        N1050   1.363       .  A
N70        C1047   1.358       .  A
C71         C211   1.442       .  S
C71          N72   1.357   1_655  A
C71        N1046   1.358       .  A
N72          C73   1.359       .  A
C73         C236   1.446       .  S
C73          N74   1.363   1_455  A
N74        C1045   1.363       .  A
C75         C200   1.447       .  S
C75          N76   1.359       .  A
C75          N80   1.363       .  A
N76          C77   1.358       .  A
C77         C217   1.442       .  S
C77          N78   1.357       .  A
N78          C79   1.359       .  A
C79         C244   1.446       .  S
C79          N80   1.363       .  A
C81         C198   1.449       .  S
C81          N82   1.360       .  A
C81          N86   1.364   1_455  A
N82          C83   1.358       .  A
C83         C215   1.444       .  S
C83        N1060   1.357   1_455  A
N84          C85   1.359       .  A
N84        C1059   1.357       .  A
C85         C231   1.447       .  S
C85        N1062   1.364       .  A
N86        C1061   1.364       .  A
O87          C95   1.266       .  A
O87        Cr105   2.015       .  S
O88          C89   1.262       .  A
O88        Cr105   1.992       .  S
C89          O90   1.266       .  A
C89         C195   1.450       .  S
O90        Cr106   2.016       .  S
O91          C92   1.262       .  A
O91        Cr106   1.993       .  S
C92          O93   1.266       .  A
C92         C191   1.450       .  S
O93        Cr107   2.015       .  S
O94          C95   1.262       .  A
O94        Cr107   1.992       .  S
C95         C193   1.450       .  S
O96         C104   1.260       .  A
O96        Cr105   1.987       .  S
O97          C98   1.265       .  A
O97        Cr105   2.015       .  S
C98          O99   1.260       .  A
C98         C199   1.447       .  S
O99        Cr106   1.988       .  S
O100        C101   1.265       .  A
O100       Cr106   2.015       .  S
C101        O102   1.261       .  A
C101        C202   1.447       .  S
O102       Cr107   1.987       .  S
O103        C104   1.265       .  A
O103       Cr107   2.015       .  S
C104        C205   1.446       .  S
Cr105       O108   1.783       .  S
Cr106       O108   1.783       .  S
Cr107       O108   1.783       .  S
O109        C117   1.260       .  A
O109       Cr127   1.987       .  S
O110        C111   1.265       .  A
O110       Cr127   2.014       .  S
C111        O112   1.260       .  A
C111        C186   1.447       .  S
O112       Cr128   1.988       .  S
O113        C114   1.265       .  A
O113       Cr128   2.015       .  S
C114        O115   1.261       .  A
C114        C187   1.446       .  S
O115       Cr129   1.987       .  S
O116        C117   1.264       .  A
O116       Cr129   2.014       .  S
C117        C190   1.446       .  S
O118        C126   1.266       .  A
O118       Cr127   2.014       .  S
O119        C120   1.261       .  A
O119       Cr127   1.991       .  S
C120        O121   1.266       .  A
C120        C203   1.449       .  S
O121       Cr128   2.014       .  S
O122        C123   1.262       .  A
O122       Cr128   1.992       .  S
C123        O124   1.265       .  A
C123        C197   1.449       .  S
O124       Cr129   2.014       .  S
O125        C126   1.262       .  A
O125       Cr129   1.991       .  S
C126        C208   1.448       .  S
Cr127       O130   1.783       .  S
Cr128       O130   1.782       .  S
Cr129       O130   1.783       .  S
C131        C180   1.459       .  S
C131        C132   1.417       .  A
C131       C1600   1.416       .  A
C132        C177   1.459       .  S
C132        C133   1.417       .  A
C133        C184   1.459       .  S
C133       C1110   1.417       .  A
C134        C182   1.459       .  S
C134       C1109   1.417   1_455  A
C134        C623   1.417       .  A
C135        C175   1.459       .  S
C135        C136   1.417       .  A
C135        C622   1.417   1_545  A
C136       C1150   1.459       .  S
C136       C1595   1.416   1_445  A
C137        C238   1.449       .  S
C137        N138   1.364       .  A
C137        N142   1.359       .  A
N138        C627   1.364       .  A
C139        C194   1.450       .  S
C139        N140   1.360       .  A
C139        N626   1.364   1_545  A
N140        C629   1.358   1_545  A
C141        C181   1.444       .  S
C141        N142   1.358       .  A
C141        N628   1.358       .  A
C143        C221   1.448       .  S
C143        N148   1.361       .  A
C143        N632   1.363   1_545  A
N144        C145   1.363       .  A
N144        C631   1.363       .  A
C145        C189   1.446       .  S
C145        N146   1.359       .  A
N146        C147   1.357       .  A
C147        C179   1.444       .  S
C147        N636   1.359       .  A
N148        C635   1.359   1_545  A
C149        C192   1.451       .  S
C149        N150   1.360       .  A
C149        N154   1.364       .  A
N150        C151   1.359       .  A
C151        C173   1.444       .  S
C151       N1128   1.357       .  A
N152        C153   1.359       .  A
N152       C1127   1.357       .  A
C153        C234   1.449       .  S
C153       N1130   1.365       .  A
N154       C1129   1.365       .  A
C155        C185   1.447       .  S
C155        N156   1.363       .  A
C155        N160   1.359       .  A
N156        C157   1.363       .  A
C157        C226   1.448       .  S
C157        N158   1.360       .  A
N158        C159   1.358       .  A
C159        C176   1.444       .  S
C159        N160   1.357       .  A
C161        C188   1.447       .  S
C161        N162   1.359       .  A
C161       N1142   1.363       .  A
N162       C1139   1.357       .  A
C163        C183   1.444       .  S
C163        N164   1.358       .  A
C163       N1138   1.357       .  A
N164        C165   1.360       .  A
C165        C228   1.448       .  S
C165        N166   1.363       .  A
N166       C1137   1.363       .  A
C167        C239   1.449       .  S
C167        N168   1.365       .  A
C167        N172   1.359       .  A
N168        C169   1.365       .  A
C169        C196   1.450       .  S
C169        N170   1.360       .  A
N170        C171   1.358       .  A
C171        C178   1.444       .  S
C171        N172   1.357       .  A
C173        C174   1.211       .  T
C174       C1112   1.459       .  S
C175        C176   1.211       .  T
C177        C178   1.211       .  T
C179        C180   1.211       .  T
C181        C182   1.211       .  T
C183        C184   1.211       .  T
C185        C186   1.213       .  T
C187        C188   1.212       .  T
C189        C190   1.212       .  T
C191        C192   1.215       .  T
C193        C194   1.215       .  T
C195        C196   1.215       .  T
C197        C198   1.214       .  T
C199        C200   1.213       .  T
C201        C202   1.212       .  T
C203        C204   1.214       .  T
C205        C206   1.212       .  T
C207        C208   1.214       .  T
C209        C210   1.211       .  T
C211        C212   1.210       .  T
C213        C214   1.210       .  T
C215        C216   1.211       .  T
C217        C218   1.210       .  T
C219        C220   1.211       .  T
C221        C222   1.213       .  T
C223        C224   1.213       .  T
C225        C226   1.213       .  T
C227        C228   1.213       .  T
C229        C230   1.213       .  T
C231        C232   1.212       .  T
C233        C234   1.214       .  T
C235        C236   1.212       .  T
C237        C238   1.214       .  T
C239        C240   1.214       .  T
C241        C242   1.212       .  T
C243        C244   1.212       .  T
O245        C253   1.261       .  A
O246        C247   1.265       .  A
C247        O248   1.262       .  A
C247        C484   1.449       .  S
O248       Cr264   1.990   1_556  S
O249        C250   1.265       .  A
O249       Cr264   2.016   1_556  S
C250        O251   1.261       .  A
C250        C481   1.448       .  S
O252        C253   1.265       .  A
C253        C477   1.448       .  S
O254        C262   1.265       .  A
O254       Cr263   2.012       .  S
O255        C256   1.261       .  A
O255       Cr263   1.990       .  S
C256        O257   1.265       .  A
C256        C487   1.446       .  S
O258        C259   1.261       .  A
C259        O260   1.265       .  A
C259        C486   1.446       .  S
O260       Cr265   2.011       .  S
O261        C262   1.261       .  A
O261       Cr265   1.990       .  S
C262        C479   1.446       .  S
Cr263       O266   1.782       .  S
Cr265       O266   1.783       .  S
O267        C275   1.265       .  A
O267       Cr285   2.012       .  S
O268        C269   1.262       .  A
O268       Cr285   1.992       .  S
C269        O270   1.265       .  A
C269        C469   1.448       .  S
O270       Cr286   2.012       .  S
O271        C272   1.262       .  A
O271       Cr286   1.992       .  S
C272        O273   1.265       .  A
C272        C466   1.447       .  S
O273       Cr287   2.011       .  S
O274        C275   1.262       .  A
O274       Cr287   1.992       .  S
C275        C471   1.448       .  S
O276        C284   1.261       .  A
O277        C278   1.264       .  A
C278        O279   1.261       .  A
C278        C473   1.447       .  S
O280        C281   1.265       .  A
C281        O282   1.261       .  A
C281        C468   1.447       .  S
O283        C284   1.264       .  A
C284        C476   1.446       .  S
Cr285       O288   1.783       .  S
Cr286       O288   1.783       .  S
Cr287       O288   1.783       .  S
C289        C463   1.459       .  S
C289       C1266   1.416   1_565  A
C289        C782   1.416       .  A
C290        C456   1.457       .  S
C290       C1265   1.416   1_545  A
C290        C291   1.416   1_655  A
C291        C454   1.459       .  S
C291        C292   1.416       .  A
C292        C458   1.457       .  S
C292        C781   1.416   1_545  A
C293        C460   1.459       .  S
C293        C780   1.416       .  A
C293       C1270   1.416   1_455  A
C294        C462   1.457       .  S
C294        C777   1.416       .  A
C294       C1269   1.416       .  A
C295        C467   1.447       .  S
C295        N296   1.359       .  A
C295        N300   1.363       .  A
N296        C297   1.358   1_545  A
C297        C464   1.444       .  S
C297        N786   1.358       .  A
N298        C785   1.358       .  A
N298        C299   1.360       .  A
C299        C451   1.449       .  S
C299        N788   1.364       .  A
N300        C787   1.364   1_545  A
C301        C485   1.446       .  S
C301        N302   1.359       .  A
C301        N794   1.363       .  A
N302        C791   1.358       .  A
C303        C457   1.442       .  S
C303        N790   1.358   1_545  A
C303        N304   1.357       .  A
N304        C305   1.359       .  A
C305        C450   1.446       .  S
C305        N306   1.363       .  A
N306        C789   1.363   1_545  A
C307        C474   1.447       .  S
C307        N308   1.359       .  A
C307        N312   1.364       .  A
N308        C309   1.357       .  A
C309        C453   1.443       .  S
C309        N310   1.358       .  A
N310        C311   1.360       .  A
C311        C448   1.449       .  S
C311        N312   1.364       .  A
C313        C445   1.446       .  S
C313        N314   1.359       .  A
C313       N1294   1.363       .  A
N314       C1291   1.358       .  A
C315        C455   1.442       .  S
C315       N1290   1.358       .  A
C315        N316   1.357   1_655  A
N316        C317   1.359       .  A
C317        C480   1.446       .  S
C317        N318   1.363   1_455  A
N318       C1289   1.363       .  A
C319        C444   1.447       .  S
C319        N320   1.359       .  A
C319        N324   1.363       .  A
N320        C321   1.358       .  A
C321        C461   1.442       .  S
C321        N322   1.357       .  A
N322        C323   1.359       .  A
C323        C488   1.446       .  S
C323        N324   1.363       .  A
C325        C442   1.449       .  S
C325        N326   1.360       .  A
C325        N330   1.364   1_455  A
N326        C327   1.358       .  A
C327        C459   1.444       .  S
C327       N1304   1.357   1_455  A
N328       C1303   1.357       .  A
N328        C329   1.359       .  A
C329        C475   1.447       .  S
C329       N1306   1.364       .  A
N330       C1305   1.364       .  A
O331        C339   1.266       .  A
O331       Cr349   2.015       .  S
O332        C333   1.262       .  A
O332       Cr349   1.991       .  S
C333        O334   1.266       .  A
C333        C439   1.450       .  S
O334       Cr350   2.016       .  S
O335        C336   1.262       .  A
O335       Cr350   1.993       .  S
C336        O337   1.266       .  A
C336        C435   1.450       .  S
O337       Cr351   2.015       .  S
O338        C339   1.262       .  A
O338       Cr351   1.992       .  S
C339        C437   1.450       .  S
O340        C348   1.260       .  A
O340       Cr349   1.987       .  S
O341        C342   1.265       .  A
O341       Cr349   2.015       .  S
C342        O343   1.260       .  A
C342        C443   1.447       .  S
O343       Cr350   1.988       .  S
O344        C345   1.265       .  A
O344       Cr350   2.015       .  S
C345        O346   1.261       .  A
C345        C446   1.446       .  S
O346       Cr351   1.987       .  S
O347        C348   1.265       .  A
O347       Cr351   2.015       .  S
C348        C449   1.446       .  S
Cr349       O352   1.783       .  S
Cr350       O352   1.783       .  S
Cr351       O352   1.783       .  S
O353        C361   1.260       .  A
O353       Cr371   1.987       .  S
O354        C355   1.265       .  A
O354       Cr371   2.014       .  S
C355        O356   1.260       .  A
C355        C430   1.447       .  S
O356       Cr372   1.988       .  S
O357        C358   1.265       .  A
O357       Cr372   2.015       .  S
C358        O359   1.261       .  A
C358        C431   1.447       .  S
O359       Cr373   1.987       .  S
O360        C361   1.264       .  A
O360       Cr373   2.014       .  S
C361        C434   1.446       .  S
O362        C370   1.266       .  A
O362       Cr371   2.014       .  S
O363        C364   1.261       .  A
O363       Cr371   1.990       .  S
C364        O365   1.266       .  A
C364        C447   1.449       .  S
O365       Cr372   2.014       .  S
O366        C367   1.262       .  A
O366       Cr372   1.992       .  S
C367        O368   1.265       .  A
C367        C441   1.449       .  S
O368       Cr373   2.014       .  S
O369        C370   1.262       .  A
O369       Cr373   1.991       .  S
C370        C452   1.448       .  S
Cr371       O374   1.783       .  S
Cr372       O374   1.782       .  S
Cr373       O374   1.783       .  S
C375        C424   1.459       .  S
C375        C376   1.417       .  A
C375       C1844   1.416       .  A
C376        C421   1.459       .  S
C376        C377   1.417       .  A
C377        C428   1.459       .  S
C377       C1354   1.417       .  A
C378        C426   1.459       .  S
C378       C1353   1.417   1_455  A
C378        C867   1.417       .  A
C379        C419   1.459       .  S
C379        C866   1.417   1_545  A
C379        C380   1.417       .  A
C380       C1394   1.459       .  S
C380       C1839   1.416   1_445  A
C381        C482   1.449       .  S
C381        N382   1.364       .  A
C381        N386   1.359       .  A
N382        C871   1.364       .  A
C383        C438   1.450       .  S
C383        N870   1.364   1_545  A
C383        N384   1.360       .  A
N384        C873   1.358   1_545  A
C385        C425   1.444       .  S
C385        N872   1.358       .  A
C385        N386   1.358       .  A
C387        C465   1.448       .  S
C387        N876   1.363   1_545  A
C387        N392   1.361       .  A
N388        C875   1.363       .  A
N388        C389   1.363       .  A
C389        C433   1.446       .  S
C389        N390   1.359       .  A
N390        C391   1.357       .  A
C391        C423   1.444       .  S
C391        N880   1.359       .  A
N392        C879   1.359   1_545  A
C393        C436   1.451       .  S
C393        N394   1.360       .  A
C393        N398   1.364       .  A
N394        C395   1.358       .  A
C395        C417   1.444       .  S
C395       N1372   1.357       .  A
N396       C1371   1.357       .  A
N396        C397   1.359       .  A
C397        C478   1.449       .  S
C397       N1374   1.365       .  A
N398       C1373   1.365       .  A
C399        C429   1.447       .  S
C399        N400   1.363       .  A
C399        N404   1.359       .  A
N400        C401   1.363       .  A
C401        C470   1.448       .  S
C401        N402   1.360       .  A
N402        C403   1.358       .  A
C403        C420   1.444       .  S
C403        N404   1.357       .  A
C405        C432   1.447       .  S
C405        N406   1.359       .  A
C405       N1386   1.363       .  A
N406       C1383   1.357       .  A
C407        C427   1.444       .  S
C407       N1382   1.357       .  A
C407        N408   1.358       .  A
N408        C409   1.360       .  A
C409        C472   1.448       .  S
C409        N410   1.363       .  A
N410       C1381   1.363       .  A
C411        C483   1.449       .  S
C411        N412   1.365       .  A
C411        N416   1.359       .  A
N412        C413   1.365       .  A
C413        C440   1.450       .  S
C413        N414   1.360       .  A
N414        C415   1.358       .  A
C415        C422   1.444       .  S
C415        N416   1.357       .  A
C417        C418   1.211       .  T
C418       C1356   1.459       .  S
C419        C420   1.211       .  T
C421        C422   1.211       .  T
C423        C424   1.211       .  T
C425        C426   1.211       .  T
C427        C428   1.211       .  T
C429        C430   1.213       .  T
C431        C432   1.213       .  T
C433        C434   1.212       .  T
C435        C436   1.215       .  T
C437        C438   1.215       .  T
C439        C440   1.215       .  T
C441        C442   1.214       .  T
C443        C444   1.213       .  T
C445        C446   1.212       .  T
C447        C448   1.214       .  T
C449        C450   1.212       .  T
C451        C452   1.214       .  T
C453        C454   1.211       .  T
C455        C456   1.210       .  T
C457        C458   1.210       .  T
C459        C460   1.211       .  T
C461        C462   1.210       .  T
C463        C464   1.211       .  T
C465        C466   1.213       .  T
C467        C468   1.213       .  T
C469        C470   1.213       .  T
C471        C472   1.213       .  T
C473        C474   1.213       .  T
C475        C476   1.212       .  T
C477        C478   1.214       .  T
C479        C480   1.212       .  T
C481        C482   1.214       .  T
C483        C484   1.214       .  T
C485        C486   1.212       .  T
C487        C488   1.212       .  T
O489        C497   1.261       .  A
O489       Cr751   1.989       .  S
O490        C491   1.265       .  A
O490       Cr751   2.015       .  S
C491        O492   1.262       .  A
C491        C728   1.449       .  S
O492       Cr508   1.990       .  S
O493        C494   1.265       .  A
O493       Cr508   2.016       .  S
C494        O495   1.261       .  A
C494        C725   1.448       .  S
O495       Cr753   1.989       .  S
O496        C497   1.265       .  A
O496       Cr753   2.015       .  S
C497        C721   1.448       .  S
O498        C506   1.265       .  A
O498       Cr507   2.012       .  S
O499        C500   1.261       .  A
O499       Cr507   1.990       .  S
C500        O501   1.265       .  A
C500        C731   1.446       .  S
O501       Cr752   2.012       .  S
O502        C503   1.261       .  A
O502       Cr752   1.990       .  S
C503        O504   1.265       .  A
C503        C730   1.446       .  S
O504       Cr509   2.011       .  S
O505        C506   1.261       .  A
O505       Cr509   1.990       .  S
C506        C723   1.446       .  S
Cr507       O733   1.989   1_554  S
Cr507       O734   2.015   1_554  S
Cr507       O510   1.782       .  S
Cr508       O745   2.012       .  S
Cr508       O746   1.990       .  S
Cr508       O754   1.782       .  S
Cr509       O739   1.989   1_554  S
Cr509       O740   2.015   1_554  S
Cr509       O510   1.783       .  S
O510       Cr752   1.782       .  S
O511        C519   1.265       .  A
O511       Cr529   2.012       .  S
O512        C513   1.262       .  A
O512       Cr529   1.992       .  S
C513        O514   1.265       .  A
C513        C713   1.448       .  S
O514       Cr530   2.012       .  S
O515        C516   1.262       .  A
O515       Cr530   1.992       .  S
C516        O517   1.265       .  A
C516        C710   1.447       .  S
O517       Cr531   2.011       .  S
O518        C519   1.262       .  A
O518       Cr531   1.992       .  S
C519        C715   1.448       .  S
O520        C528   1.261       .  A
O520       Cr773   1.988   1_554  S
O521        C522   1.264       .  A
O521       Cr773   2.013   1_554  S
C522        O523   1.261       .  A
C522        C717   1.447       .  S
O523       Cr774   1.989   1_554  S
O524        C525   1.265       .  A
O524       Cr774   2.014   1_554  S
C525        O526   1.261       .  A
C525        C712   1.447       .  S
O526       Cr775   1.988   1_554  S
O527        C528   1.264       .  A
O527       Cr775   2.013   1_554  S
C528        C720   1.446       .  S
Cr529       O764   1.988       .  S
Cr529       O765   2.013       .  S
Cr529       O532   1.783       .  S
Cr530       O767   1.989       .  S
Cr530       O768   2.014       .  S
Cr530       O532   1.783       .  S
Cr531       O770   1.988       .  S
Cr531       O771   2.013       .  S
Cr531       O532   1.783       .  S
C533        C707   1.459       .  S
C533       C1510   1.416       .  A
C534        C700   1.457       .  S
C534       C1509   1.416       .  A
C534        C535   1.416   1_655  A
C535        C698   1.459       .  S
C535        C536   1.416       .  A
C536        C702   1.457       .  S
C537        C704   1.459       .  S
C537       C1514   1.416   1_455  A
C538        C706   1.457       .  S
C538       C1513   1.416       .  A
C539        C711   1.447       .  S
C539        N540   1.359       .  A
C539        N544   1.363       .  A
N540        C541   1.358       .  A
C541        C708   1.444       .  S
N542        C543   1.360       .  A
C543        C695   1.449       .  S
C545        C729   1.446       .  S
C545        N546   1.359       .  A
C547        C701   1.442       .  S
C547        N548   1.357       .  A
N548        C549   1.359       .  A
C549        C694   1.446       .  S
C549        N550   1.363       .  A
C551        C718   1.447       .  S
C551        N552   1.359       .  A
C551        N556   1.364       .  A
N552        C553   1.357       .  A
C553        C697   1.443       .  S
C553        N554   1.358       .  A
N554        C555   1.360       .  A
C555        C692   1.449       .  S
C555        N556   1.364       .  A
C557        C689   1.446       .  S
C557        N558   1.359       .  A
C557       N1538   1.363       .  A
N558       C1535   1.358       .  A
C559        C699   1.442       .  S
C559       N1534   1.358       .  A
C559        N560   1.357   1_655  A
N560        C561   1.359       .  A
C561        C724   1.446       .  S
C561        N562   1.363   1_455  A
N562       C1533   1.363       .  A
C563        C688   1.447       .  S
C563        N564   1.359       .  A
C563        N568   1.363       .  A
N564        C565   1.358       .  A
C565        C705   1.442       .  S
C565        N566   1.357       .  A
N566        C567   1.359       .  A
C567        C732   1.446       .  S
C567        N568   1.363       .  A
C569        C686   1.449       .  S
C569        N570   1.360       .  A
C569        N574   1.364   1_455  A
N570        C571   1.358       .  A
C571        C703   1.444       .  S
C571       N1548   1.357   1_455  A
N572       C1547   1.357       .  A
N572        C573   1.359       .  A
C573        C719   1.447       .  S
C573       N1550   1.364       .  A
N574       C1549   1.364       .  A
O575        C583   1.266       .  A
O575       Cr593   2.015       .  S
O576        C577   1.262       .  A
O576       Cr593   1.992       .  S
C577        O578   1.266       .  A
C577        C683   1.450       .  S
O578       Cr594   2.016       .  S
O579        C580   1.262       .  A
O579       Cr594   1.993       .  S
C580        O581   1.266       .  A
C580        C679   1.450       .  S
O581       Cr595   2.015       .  S
O582        C583   1.262       .  A
O582       Cr595   1.992       .  S
C583        C681   1.450       .  S
O584        C592   1.260       .  A
O584       Cr593   1.987       .  S
O585        C586   1.265       .  A
O585       Cr593   2.015       .  S
C586        O587   1.260       .  A
C586        C687   1.447       .  S
O587       Cr594   1.988       .  S
O588        C589   1.265       .  A
O588       Cr594   2.015       .  S
C589        O590   1.261       .  A
C589        C690   1.446       .  S
O590       Cr595   1.987       .  S
O591        C592   1.265       .  A
O591       Cr595   2.015       .  S
C592        C693   1.446       .  S
Cr593       O596   1.783       .  S
Cr594       O596   1.783       .  S
Cr595       O596   1.783       .  S
O597        C605   1.260       .  A
O597       Cr615   1.987       .  S
O598        C599   1.265       .  A
O598       Cr615   2.014       .  S
C599        O600   1.260       .  A
C599        C674   1.447       .  S
O600       Cr616   1.988       .  S
O601        C602   1.265       .  A
O601       Cr616   2.015       .  S
C602        O603   1.261       .  A
C602        C675   1.447       .  S
O603       Cr617   1.987       .  S
O604        C605   1.264       .  A
O604       Cr617   2.014       .  S
C605        C678   1.446       .  S
O606        C614   1.266       .  A
O606       Cr615   2.014       .  S
O607        C608   1.261       .  A
O607       Cr615   1.990       .  S
C608        O609   1.266       .  A
C608        C691   1.449       .  S
O609       Cr616   2.014       .  S
O610        C611   1.262       .  A
O610       Cr616   1.992       .  S
C611        O612   1.265       .  A
C611        C685   1.449       .  S
O612       Cr617   2.014       .  S
O613        C614   1.262       .  A
O613       Cr617   1.991       .  S
C614        C696   1.448       .  S
Cr615       O618   1.783       .  S
Cr616       O618   1.782       .  S
Cr617       O618   1.783       .  S
C619        C668   1.459       .  S
C619        C620   1.417       .  A
C619       C1112   1.416   1_565  A
C620        C665   1.459       .  S
C620        C621   1.417       .  A
C621        C672   1.459       .  S
C621       C1598   1.417       .  A
C622        C670   1.459       .  S
C622       C1597   1.417   1_455  A
C623        C663   1.459       .  S
C623        C624   1.417       .  A
C624       C1638   1.459       .  S
C624       C1107   1.416   1_455  A
C625        C726   1.449       .  S
C625        N626   1.364       .  A
C625        N630   1.359       .  A
C627        C682   1.450       .  S
C627        N628   1.360       .  A
C629        C669   1.444       .  S
C629        N630   1.358       .  A
C631        C709   1.448       .  S
C631        N636   1.361       .  A
N632        C633   1.363       .  A
C633        C677   1.446       .  S
C633        N634   1.359       .  A
N634        C635   1.357       .  A
C635        C667   1.444       .  S
C637        C680   1.451       .  S
C637        N638   1.360       .  A
C637        N642   1.364       .  A
N638        C639   1.359       .  A
C639        C661   1.444       .  S
C639       N1616   1.357       .  A
N640       C1615   1.357       .  A
N640        C641   1.359       .  A
C641        C722   1.449       .  S
C641       N1618   1.365       .  A
N642       C1617   1.365       .  A
C643        C673   1.447       .  S
C643        N644   1.363       .  A
C643        N648   1.359       .  A
N644        C645   1.363       .  A
C645        C714   1.448       .  S
C645        N646   1.360       .  A
N646        C647   1.358       .  A
C647        C664   1.444       .  S
C647        N648   1.357       .  A
C649        C676   1.447       .  S
C649        N650   1.359       .  A
C649       N1630   1.363       .  A
N650       C1627   1.357       .  A
C651        C671   1.444       .  S
C651       N1626   1.357       .  A
C651        N652   1.358       .  A
N652        C653   1.360       .  A
C653        C716   1.448       .  S
C653        N654   1.363       .  A
N654       C1625   1.363       .  A
C655        C727   1.449       .  S
C655        N656   1.365       .  A
C655        N660   1.359       .  A
N656        C657   1.365       .  A
C657        C684   1.450       .  S
C657        N658   1.360       .  A
N658        C659   1.358       .  A
C659        C666   1.444       .  S
C659        N660   1.357       .  A
C661        C662   1.211       .  T
C662       C1600   1.459       .  S
C663        C664   1.211       .  T
C665        C666   1.211       .  T
C667        C668   1.211       .  T
C669        C670   1.211       .  T
C671        C672   1.211       .  T
C673        C674   1.213       .  T
C675        C676   1.213       .  T
C677        C678   1.212       .  T
C679        C680   1.215       .  T
C681        C682   1.215       .  T
C683        C684   1.215       .  T
C685        C686   1.214       .  T
C687        C688   1.213       .  T
C689        C690   1.212       .  T
C691        C692   1.214       .  T
C693        C694   1.212       .  T
C695        C696   1.214       .  T
C697        C698   1.211       .  T
C699        C700   1.210       .  T
C701        C702   1.210       .  T
C703        C704   1.211       .  T
C705        C706   1.210       .  T
C707        C708   1.211       .  T
C709        C710   1.213       .  T
C711        C712   1.213       .  T
C713        C714   1.213       .  T
C715        C716   1.213       .  T
C717        C718   1.213       .  T
C719        C720   1.212       .  T
C721        C722   1.214       .  T
C723        C724   1.212       .  T
C725        C726   1.214       .  T
C727        C728   1.214       .  T
C729        C730   1.212       .  T
C731        C732   1.212       .  T
O733        C741   1.261       .  A
O734        C735   1.265       .  A
C735        O736   1.262       .  A
C735        C972   1.449       .  S
O736       Cr752   1.990   1_556  S
O737        C738   1.265       .  A
O737       Cr752   2.016   1_556  S
C738        O739   1.262       .  A
C738        C969   1.448       .  S
O740        C741   1.265       .  A
C741        C965   1.448       .  S
O742        C750   1.265       .  A
O742       Cr751   2.012       .  S
O743        C744   1.261       .  A
O743       Cr751   1.990       .  S
C744        O745   1.265       .  A
C744        C975   1.446       .  S
O746        C747   1.261       .  A
C747        O748   1.265       .  A
C747        C974   1.446       .  S
O748       Cr753   2.011       .  S
O749        C750   1.261       .  A
O749       Cr753   1.990       .  S
C750        C967   1.446       .  S
Cr751       O754   1.782       .  S
Cr753       O754   1.783       .  S
O755        C763   1.265       .  A
O755       Cr773   2.012       .  S
O756        C757   1.262       .  A
O756       Cr773   1.992       .  S
C757        O758   1.265       .  A
C757        C957   1.448       .  S
O758       Cr774   2.012       .  S
O759        C760   1.262       .  A
O759       Cr774   1.992       .  S
C760        O761   1.265       .  A
C760        C954   1.447       .  S
O761       Cr775   2.011       .  S
O762        C763   1.262       .  A
O762       Cr775   1.992       .  S
C763        C959   1.448       .  S
O764        C772   1.261       .  A
O765        C766   1.264       .  A
C766        O767   1.261       .  A
C766        C961   1.447       .  S
O768        C769   1.264       .  A
C769        O770   1.261       .  A
C769        C956   1.447       .  S
O771        C772   1.264       .  A
C772        C964   1.446       .  S
Cr773       O776   1.783       .  S
Cr774       O776   1.783       .  S
Cr775       O776   1.783       .  S
C777        C951   1.459       .  S
C777       C1754   1.416       .  A
C778        C944   1.457       .  S
C778       C1753   1.416       .  A
C778        C779   1.416   1_655  A
C779        C942   1.459       .  S
C779        C780   1.416       .  A
C780        C946   1.457       .  S
C781        C948   1.459       .  S
C781       C1758   1.416   1_455  A
C782        C950   1.457       .  S
C782       C1757   1.416       .  A
C783        C955   1.447       .  S
C783        N784   1.359       .  A
C783        N788   1.363       .  A
N784        C785   1.358       .  A
C785        C952   1.444       .  S
N786        C787   1.360       .  A
C787        C939   1.449       .  S
C789        C973   1.446       .  S
C789        N790   1.359       .  A
C791        C945   1.442       .  S
C791        N792   1.357       .  A
N792        C793   1.359       .  A
C793        C938   1.446       .  S
C793        N794   1.363       .  A
C795        C962   1.447       .  S
C795        N796   1.358       .  A
C795        N800   1.364       .  A
N796        C797   1.357       .  A
C797        C941   1.443       .  S
C797        N798   1.358       .  A
N798        C799   1.360       .  A
C799        C936   1.449       .  S
C799        N800   1.364       .  A
C801        C933   1.447       .  S
C801        N802   1.359       .  A
C801       N1782   1.363       .  A
N802       C1779   1.358       .  A
C803        C943   1.442       .  S
C803       N1778   1.358       .  A
C803        N804   1.357   1_655  A
N804        C805   1.359       .  A
C805        C968   1.446       .  S
C805        N806   1.363   1_455  A
N806       C1777   1.363       .  A
C807        C932   1.447       .  S
C807        N808   1.359       .  A
C807        N812   1.363       .  A
N808        C809   1.358       .  A
C809        C949   1.442       .  S
C809        N810   1.357       .  A
N810        C811   1.359       .  A
C811        C976   1.446       .  S
C811        N812   1.363       .  A
C813        C930   1.449       .  S
C813        N814   1.360       .  A
C813        N818   1.364   1_455  A
N814        C815   1.358       .  A
C815        C947   1.444       .  S
C815       N1792   1.357   1_455  A
N816       C1791   1.357       .  A
N816        C817   1.359       .  A
C817        C963   1.447       .  S
C817       N1794   1.364       .  A
N818       C1793   1.364       .  A
O819        C827   1.266       .  A
O819       Cr837   2.015       .  S
O820        C821   1.262       .  A
O820       Cr837   1.992       .  S
C821        O822   1.266       .  A
C821        C927   1.450       .  S
O822       Cr838   2.016       .  S
O823        C824   1.262       .  A
O823       Cr838   1.993       .  S
C824        O825   1.266       .  A
C824        C923   1.450       .  S
O825       Cr839   2.015       .  S
O826        C827   1.262       .  A
O826       Cr839   1.992       .  S
C827        C925   1.450       .  S
O828        C836   1.260       .  A
O828       Cr837   1.987       .  S
O829        C830   1.265       .  A
O829       Cr837   2.015       .  S
C830        O831   1.260       .  A
C830        C931   1.447       .  S
O831       Cr838   1.988       .  S
O832        C833   1.265       .  A
O832       Cr838   2.015       .  S
C833        O834   1.261       .  A
C833        C934   1.447       .  S
O834       Cr839   1.987       .  S
O835        C836   1.265       .  A
O835       Cr839   2.015       .  S
C836        C937   1.446       .  S
Cr837       O840   1.783       .  S
Cr838       O840   1.783       .  S
Cr839       O840   1.783       .  S
O841        C849   1.260       .  A
O841       Cr859   1.987       .  S
O842        C843   1.265       .  A
O842       Cr859   2.014       .  S
C843        O844   1.260       .  A
C843        C918   1.447       .  S
O844       Cr860   1.988       .  S
O845        C846   1.265       .  A
O845       Cr860   2.015       .  S
C846        O847   1.261       .  A
C846        C919   1.447       .  S
O847       Cr861   1.987       .  S
O848        C849   1.265       .  A
O848       Cr861   2.014       .  S
C849        C922   1.446       .  S
O850        C858   1.266       .  A
O850       Cr859   2.014       .  S
O851        C852   1.261       .  A
O851       Cr859   1.991       .  S
C852        O853   1.266       .  A
C852        C935   1.449       .  S
O853       Cr860   2.014       .  S
O854        C855   1.262       .  A
O854       Cr860   1.992       .  S
C855        O856   1.265       .  A
C855        C929   1.449       .  S
O856       Cr861   2.014       .  S
O857        C858   1.262       .  A
O857       Cr861   1.991       .  S
C858        C940   1.448       .  S
Cr859       O862   1.783       .  S
Cr860       O862   1.782       .  S
Cr861       O862   1.783       .  S
C863        C912   1.459       .  S
C863        C864   1.417       .  A
C863       C1356   1.416   1_565  A
C864        C909   1.459       .  S
C864        C865   1.417       .  A
C865        C916   1.459       .  S
C865       C1842   1.417       .  A
C866        C914   1.459       .  S
C866       C1841   1.417   1_455  A
C867        C907   1.459       .  S
C867        C868   1.417       .  A
C868       C1882   1.459       .  S
C868       C1351   1.416   1_455  A
C869        C970   1.449       .  S
C869        N870   1.364       .  A
C869        N874   1.359       .  A
C871        C926   1.450       .  S
C871        N872   1.360       .  A
C873        C913   1.444       .  S
C873        N874   1.358       .  A
C875        C953   1.448       .  S
C875        N880   1.361       .  A
N876        C877   1.363       .  A
C877        C921   1.446       .  S
C877        N878   1.359       .  A
N878        C879   1.357       .  A
C879        C911   1.444       .  S
C881        C924   1.451       .  S
C881        N882   1.360       .  A
C881        N886   1.364       .  A
N882        C883   1.359       .  A
C883        C905   1.444       .  S
C883       N1860   1.357       .  A
N884       C1859   1.357       .  A
N884        C885   1.359       .  A
C885        C966   1.449       .  S
C885       N1862   1.365       .  A
N886       C1861   1.365       .  A
C887        C917   1.447       .  S
C887        N888   1.363       .  A
C887        N892   1.359       .  A
N888        C889   1.363       .  A
C889        C958   1.448       .  S
C889        N890   1.360       .  A
N890        C891   1.358       .  A
C891        C908   1.444       .  S
C891        N892   1.357       .  A
C893        C920   1.447       .  S
C893        N894   1.359       .  A
C893       N1874   1.363       .  A
N894       C1871   1.357       .  A
C895        C915   1.444       .  S
C895       N1870   1.357       .  A
C895        N896   1.358       .  A
N896        C897   1.360       .  A
C897        C960   1.448       .  S
C897        N898   1.363       .  A
N898       C1869   1.363       .  A
C899        C971   1.449       .  S
C899        N900   1.365       .  A
C899        N904   1.359       .  A
N900        C901   1.365       .  A
C901        C928   1.450       .  S
C901        N902   1.360       .  A
N902        C903   1.358       .  A
C903        C910   1.444       .  S
C903        N904   1.357       .  A
C905        C906   1.211       .  T
C906       C1844   1.459       .  S
C907        C908   1.211       .  T
C909        C910   1.211       .  T
C911        C912   1.211       .  T
C913        C914   1.211       .  T
C915        C916   1.211       .  T
C917        C918   1.213       .  T
C919        C920   1.213       .  T
C921        C922   1.212       .  T
C923        C924   1.215       .  T
C925        C926   1.215       .  T
C927        C928   1.215       .  T
C929        C930   1.214       .  T
C931        C932   1.213       .  T
C933        C934   1.212       .  T
C935        C936   1.214       .  T
C937        C938   1.212       .  T
C939        C940   1.214       .  T
C941        C942   1.211       .  T
C943        C944   1.210       .  T
C945        C946   1.210       .  T
C947        C948   1.211       .  T
C949        C950   1.210       .  T
C951        C952   1.211       .  T
C953        C954   1.213       .  T
C955        C956   1.213       .  T
C957        C958   1.213       .  T
C959        C960   1.213       .  T
C961        C962   1.213       .  T
C963        C964   1.212       .  T
C965        C966   1.214       .  T
C967        C968   1.212       .  T
C969        C970   1.214       .  T
C971        C972   1.214       .  T
C973        C974   1.212       .  T
C975        C976   1.212       .  T
O977        C985   1.261       .  A
O977      Cr1239   1.989       .  S
O978        C979   1.265       .  A
O978      Cr1239   2.015       .  S
C979        O980   1.262       .  A
C979       C1216   1.449       .  S
O980       Cr996   1.990       .  S
O981        C982   1.265       .  A
O981       Cr996   2.016       .  S
C982        O983   1.261       .  A
C982       C1213   1.448       .  S
O983      Cr1241   1.989       .  S
O984        C985   1.265       .  A
O984      Cr1241   2.015       .  S
C985       C1209   1.448       .  S
O986        C994   1.265       .  A
O986       Cr995   2.012       .  S
O987        C988   1.261       .  A
O987       Cr995   1.990       .  S
C988        O989   1.265       .  A
C988       C1219   1.446       .  S
O989      Cr1240   2.012       .  S
O990        C991   1.261       .  A
O990      Cr1240   1.990       .  S
C991        O992   1.265       .  A
C991       C1218   1.446       .  S
O992       Cr997   2.011       .  S
O993        C994   1.261       .  A
O993       Cr997   1.990       .  S
C994       C1211   1.446       .  S
Cr995      O1221   1.989   1_554  S
Cr995      O1222   2.015   1_554  S
Cr995       O998   1.782       .  S
Cr996      O1233   2.012       .  S
Cr996      O1234   1.990       .  S
Cr996      O1242   1.782       .  S
Cr997      O1227   1.989   1_554  S
Cr997      O1228   2.015   1_554  S
Cr997       O998   1.783       .  S
O998      Cr1240   1.782       .  S
O999       C1007   1.265       .  A
O999      Cr1017   2.012       .  S
O1000      C1001   1.262       .  A
O1000     Cr1017   1.992       .  S
C1001      O1002   1.265       .  A
C1001      C1201   1.448       .  S
O1002     Cr1018   2.012       .  S
O1003      C1004   1.262       .  A
O1003     Cr1018   1.992       .  S
C1004      O1005   1.265       .  A
C1004      C1198   1.447       .  S
O1005     Cr1019   2.011       .  S
O1006      C1007   1.262       .  A
O1006     Cr1019   1.992       .  S
C1007      C1203   1.448       .  S
O1008      C1016   1.261       .  A
O1008     Cr1261   1.988   1_554  S
O1009      C1010   1.264       .  A
O1009     Cr1261   2.013   1_554  S
C1010      O1011   1.261       .  A
C1010      C1205   1.447       .  S
O1011     Cr1262   1.989   1_554  S
O1012      C1013   1.264       .  A
O1012     Cr1262   2.014   1_554  S
C1013      O1014   1.261       .  A
C1013      C1200   1.447       .  S
O1014     Cr1263   1.988   1_554  S
O1015      C1016   1.264       .  A
O1015     Cr1263   2.013   1_554  S
C1016      C1208   1.446       .  S
Cr1017     O1252   1.988       .  S
Cr1017     O1253   2.013       .  S
Cr1017     O1020   1.783       .  S
Cr1018     O1255   1.989       .  S
Cr1018     O1256   2.014       .  S
Cr1018     O1020   1.783       .  S
Cr1019     O1258   1.988       .  S
Cr1019     O1259   2.013       .  S
Cr1019     O1020   1.783       .  S
C1021      C1195   1.459       .  S
C1021      C1514   1.416       .  A
C1022      C1188   1.457       .  S
C1022      C1023   1.416       .  A
C1023      C1186   1.459       .  S
C1023      C1024   1.416       .  A
C1024      C1190   1.457       .  S
C1024      C1513   1.416   1_545  A
C1025      C1192   1.459       .  S
C1025      C1512   1.416       .  A
C1026      C1194   1.457       .  S
C1026      C1509   1.416       .  A
C1027      C1199   1.447       .  S
C1027      N1028   1.359       .  A
C1027      N1032   1.363       .  A
N1028      C1029   1.358   1_545  A
C1029      C1196   1.444       .  S
C1029      N1518   1.358       .  A
N1030      C1517   1.358       .  A
N1030      C1031   1.360       .  A
C1031      C1183   1.449       .  S
C1031      N1520   1.364       .  A
N1032      C1519   1.364   1_545  A
C1033      C1217   1.446       .  S
C1033      N1034   1.359       .  A
C1033      N1526   1.363       .  A
N1034      C1523   1.358       .  A
C1035      C1189   1.442       .  S
C1035      N1522   1.358   1_545  A
C1035      N1036   1.357       .  A
N1036      C1037   1.359       .  A
C1037      C1182   1.446       .  S
C1037      N1038   1.363       .  A
N1038      C1521   1.363   1_545  A
C1039      C1206   1.447       .  S
C1039      N1040   1.359       .  A
C1039      N1044   1.364       .  A
N1040      C1041   1.357       .  A
C1041      C1185   1.443       .  S
C1041      N1042   1.358       .  A
N1042      C1043   1.360       .  A
C1043      C1180   1.449       .  S
C1043      N1044   1.364       .  A
C1045      C1177   1.447       .  S
C1045      N1046   1.359       .  A
C1047      C1187   1.442       .  S
C1047      N1048   1.357       .  A
N1048      C1049   1.359       .  A
C1049      C1212   1.446       .  S
C1049      N1050   1.363       .  A
C1051      C1176   1.447       .  S
C1051      N1052   1.359       .  A
C1051      N1056   1.363       .  A
N1052      C1053   1.358       .  A
C1053      C1193   1.442       .  S
C1053      N1054   1.357       .  A
N1054      C1055   1.359       .  A
C1055      C1220   1.446       .  S
C1055      N1056   1.363       .  A
C1057      C1174   1.449       .  S
C1057      N1058   1.360       .  A
C1057      N1062   1.364       .  A
N1058      C1059   1.358       .  A
C1059      C1191   1.444       .  S
N1060      C1061   1.359       .  A
C1061      C1207   1.447       .  S
O1063      C1071   1.266       .  A
O1063     Cr1081   2.015       .  S
O1064      C1065   1.262       .  A
O1064     Cr1081   1.992       .  S
C1065      O1066   1.266       .  A
C1065      C1171   1.450       .  S
O1066     Cr1082   2.016       .  S
O1067      C1068   1.262       .  A
O1067     Cr1082   1.993       .  S
C1068      O1069   1.266       .  A
C1068      C1167   1.450       .  S
O1069     Cr1083   2.015       .  S
O1070      C1071   1.262       .  A
O1070     Cr1083   1.992       .  S
C1071      C1169   1.450       .  S
O1072      C1080   1.260       .  A
O1072     Cr1081   1.987       .  S
O1073      C1074   1.265       .  A
O1073     Cr1081   2.015       .  S
C1074      O1075   1.260       .  A
C1074      C1175   1.447       .  S
O1075     Cr1082   1.988       .  S
O1076      C1077   1.265       .  A
O1076     Cr1082   2.015       .  S
C1077      O1078   1.261       .  A
C1077      C1178   1.447       .  S
O1078     Cr1083   1.987       .  S
O1079      C1080   1.265       .  A
O1079     Cr1083   2.015       .  S
C1080      C1181   1.446       .  S
Cr1081     O1084   1.783       .  S
Cr1082     O1084   1.783       .  S
Cr1083     O1084   1.783       .  S
O1085      C1093   1.260       .  A
O1085     Cr1103   1.987       .  S
O1086      C1087   1.265       .  A
O1086     Cr1103   2.014       .  S
C1087      O1088   1.260       .  A
C1087      C1162   1.447       .  S
O1088     Cr1104   1.988       .  S
O1089      C1090   1.265       .  A
O1089     Cr1104   2.015       .  S
C1090      O1091   1.261       .  A
C1090      C1163   1.447       .  S
O1091     Cr1105   1.987       .  S
O1092      C1093   1.264       .  A
O1092     Cr1105   2.014       .  S
C1093      C1166   1.446       .  S
O1094      C1102   1.266       .  A
O1094     Cr1103   2.014       .  S
O1095      C1096   1.261       .  A
O1095     Cr1103   1.991       .  S
C1096      O1097   1.266       .  A
C1096      C1179   1.449       .  S
O1097     Cr1104   2.014       .  S
O1098      C1099   1.262       .  A
O1098     Cr1104   1.992       .  S
C1099      O1100   1.265       .  A
C1099      C1173   1.449       .  S
O1100     Cr1105   2.014       .  S
O1101      C1102   1.262       .  A
O1101     Cr1105   1.991       .  S
C1102      C1184   1.448       .  S
Cr1103     O1106   1.783       .  S
Cr1104     O1106   1.782       .  S
Cr1105     O1106   1.783       .  S
C1107      C1156   1.459       .  S
C1107      C1108   1.417       .  A
C1108      C1153   1.459       .  S
C1108      C1109   1.417       .  A
C1109      C1160   1.459       .  S
C1110      C1158   1.459       .  S
C1110      C1599   1.417       .  A
C1111      C1151   1.459       .  S
C1111      C1598   1.417   1_545  A
C1111      C1112   1.417       .  A
C1113      C1214   1.449       .  S
C1113      N1114   1.364       .  A
C1113      N1118   1.359       .  A
N1114      C1603   1.364       .  A
C1115      C1170   1.450       .  S
C1115      N1602   1.364   1_545  A
C1115      N1116   1.360       .  A
N1116      C1605   1.358   1_545  A
C1117      C1157   1.444       .  S
C1117      N1604   1.358       .  A
C1117      N1118   1.358       .  A
C1119      C1197   1.448       .  S
C1119      N1608   1.363   1_545  A
C1119      N1124   1.361       .  A
N1120      C1607   1.363       .  A
N1120      C1121   1.363       .  A
C1121      C1165   1.446       .  S
C1121      N1122   1.359       .  A
N1122      C1123   1.357       .  A
C1123      C1155   1.444       .  S
C1123      N1612   1.359       .  A
N1124      C1611   1.359   1_545  A
C1125      C1168   1.451       .  S
C1125      N1126   1.360       .  A
C1125      N1130   1.364   1_655  A
N1126      C1127   1.359   1_655  A
C1127      C1149   1.444       .  S
N1128      C1129   1.359       .  A
C1129      C1210   1.449       .  S
C1131      C1161   1.447       .  S
C1131      N1132   1.363       .  A
C1131      N1136   1.359       .  A
N1132      C1133   1.363       .  A
C1133      C1202   1.448       .  S
C1133      N1134   1.360       .  A
N1134      C1135   1.358       .  A
C1135      C1152   1.444       .  S
C1135      N1136   1.357       .  A
C1137      C1164   1.447       .  S
C1137      N1138   1.359       .  A
C1139      C1159   1.444       .  S
C1139      N1140   1.358   1_455  A
N1140      C1141   1.360       .  A
C1141      C1204   1.448       .  S
C1141      N1142   1.363   1_655  A
C1143      C1215   1.449       .  S
C1143      N1144   1.365       .  A
C1143      N1148   1.359       .  A
N1144      C1145   1.365       .  A
C1145      C1172   1.450       .  S
C1145      N1146   1.360       .  A
N1146      C1147   1.358       .  A
C1147      C1154   1.444       .  S
C1147      N1148   1.357       .  A
C1149      C1150   1.211       .  T
C1151      C1152   1.211       .  T
C1153      C1154   1.211       .  T
C1155      C1156   1.211       .  T
C1157      C1158   1.211       .  T
C1159      C1160   1.211   1_455  T
C1161      C1162   1.213       .  T
C1163      C1164   1.213       .  T
C1165      C1166   1.212       .  T
C1167      C1168   1.215       .  T
C1169      C1170   1.215       .  T
C1171      C1172   1.215       .  T
C1173      C1174   1.214       .  T
C1175      C1176   1.213       .  T
C1177      C1178   1.212       .  T
C1179      C1180   1.214       .  T
C1181      C1182   1.212       .  T
C1183      C1184   1.214       .  T
C1185      C1186   1.211       .  T
C1187      C1188   1.210       .  T
C1189      C1190   1.210       .  T
C1191      C1192   1.211       .  T
C1193      C1194   1.210       .  T
C1195      C1196   1.211       .  T
C1197      C1198   1.213       .  T
C1199      C1200   1.213       .  T
C1201      C1202   1.213       .  T
C1203      C1204   1.213       .  T
C1205      C1206   1.213       .  T
C1207      C1208   1.212       .  T
C1209      C1210   1.214       .  T
C1211      C1212   1.212       .  T
C1213      C1214   1.214       .  T
C1215      C1216   1.214       .  T
C1217      C1218   1.212       .  T
C1219      C1220   1.212       .  T
O1221      C1229   1.261       .  A
O1222      C1223   1.265       .  A
C1223      O1224   1.262       .  A
C1223      C1460   1.449       .  S
O1224     Cr1240   1.990   1_556  S
O1225      C1226   1.265       .  A
O1225     Cr1240   2.016   1_556  S
C1226      O1227   1.261       .  A
C1226      C1457   1.448       .  S
O1228      C1229   1.265       .  A
C1229      C1453   1.448       .  S
O1230      C1238   1.265       .  A
O1230     Cr1239   2.012       .  S
O1231      C1232   1.261       .  A
O1231     Cr1239   1.990       .  S
C1232      O1233   1.265       .  A
C1232      C1463   1.446       .  S
O1234      C1235   1.261       .  A
C1235      O1236   1.265       .  A
C1235      C1462   1.446       .  S
O1236     Cr1241   2.011       .  S
O1237      C1238   1.261       .  A
O1237     Cr1241   1.990       .  S
C1238      C1455   1.446       .  S
Cr1239     O1242   1.782       .  S
Cr1241     O1242   1.783       .  S
O1243      C1251   1.265       .  A
O1243     Cr1261   2.012       .  S
O1244      C1245   1.262       .  A
O1244     Cr1261   1.992       .  S
C1245      O1246   1.265       .  A
C1245      C1445   1.448       .  S
O1246     Cr1262   2.012       .  S
O1247      C1248   1.262       .  A
O1247     Cr1262   1.992       .  S
C1248      O1249   1.265       .  A
C1248      C1442   1.447       .  S
O1249     Cr1263   2.011       .  S
O1250      C1251   1.262       .  A
O1250     Cr1263   1.992       .  S
C1251      C1447   1.448       .  S
O1252      C1260   1.261       .  A
O1253      C1254   1.264       .  A
C1254      O1255   1.261       .  A
C1254      C1449   1.447       .  S
O1256      C1257   1.265       .  A
C1257      O1258   1.261       .  A
C1257      C1444   1.447       .  S
O1259      C1260   1.264       .  A
C1260      C1452   1.446       .  S
Cr1261     O1264   1.783       .  S
Cr1262     O1264   1.783       .  S
Cr1263     O1264   1.783       .  S
C1265      C1439   1.459       .  S
C1265      C1758   1.416       .  A
C1266      C1432   1.457       .  S
C1266      C1267   1.416       .  A
C1267      C1430   1.459       .  S
C1267      C1268   1.416       .  A
C1268      C1434   1.457       .  S
C1268      C1757   1.416   1_545  A
C1269      C1436   1.459       .  S
C1269      C1756   1.416       .  A
C1270      C1438   1.457       .  S
C1270      C1753   1.416       .  A
C1271      C1443   1.447       .  S
C1271      N1272   1.359       .  A
C1271      N1276   1.363       .  A
N1272      C1273   1.358   1_545  A
C1273      C1440   1.444       .  S
C1273      N1762   1.358       .  A
N1274      C1761   1.358       .  A
N1274      C1275   1.360       .  A
C1275      C1427   1.449       .  S
C1275      N1764   1.364       .  A
N1276      C1763   1.364   1_545  A
C1277      C1461   1.446       .  S
C1277      N1278   1.359       .  A
C1277      N1770   1.363       .  A
N1278      C1767   1.358       .  A
C1279      C1433   1.442       .  S
C1279      N1766   1.358   1_545  A
C1279      N1280   1.357       .  A
N1280      C1281   1.359       .  A
C1281      C1426   1.446       .  S
C1281      N1282   1.363       .  A
N1282      C1765   1.363   1_545  A
C1283      C1450   1.447       .  S
C1283      N1284   1.359       .  A
C1283      N1288   1.364       .  A
N1284      C1285   1.357       .  A
C1285      C1429   1.443       .  S
C1285      N1286   1.358       .  A
N1286      C1287   1.360       .  A
C1287      C1424   1.449       .  S
C1287      N1288   1.364       .  A
C1289      C1421   1.446       .  S
C1289      N1290   1.359       .  A
C1291      C1431   1.442       .  S
C1291      N1292   1.357       .  A
N1292      C1293   1.359       .  A
C1293      C1456   1.446       .  S
C1293      N1294   1.363       .  A
C1295      C1420   1.447       .  S
C1295      N1296   1.359       .  A
C1295      N1300   1.363       .  A
N1296      C1297   1.358       .  A
C1297      C1437   1.442       .  S
C1297      N1298   1.357       .  A
N1298      C1299   1.359       .  A
C1299      C1464   1.446       .  S
C1299      N1300   1.363       .  A
C1301      C1418   1.449       .  S
C1301      N1302   1.360       .  A
C1301      N1306   1.364       .  A
N1302      C1303   1.358       .  A
C1303      C1435   1.444       .  S
N1304      C1305   1.359       .  A
C1305      C1451   1.447       .  S
O1307      C1315   1.266       .  A
O1307     Cr1325   2.015       .  S
O1308      C1309   1.262       .  A
O1308     Cr1325   1.991       .  S
C1309      O1310   1.266       .  A
C1309      C1415   1.450       .  S
O1310     Cr1326   2.016       .  S
O1311      C1312   1.262       .  A
O1311     Cr1326   1.993       .  S
C1312      O1313   1.266       .  A
C1312      C1411   1.450       .  S
O1313     Cr1327   2.015       .  S
O1314      C1315   1.262       .  A
O1314     Cr1327   1.992       .  S
C1315      C1413   1.450       .  S
O1316      C1324   1.260       .  A
O1316     Cr1325   1.987       .  S
O1317      C1318   1.265       .  A
O1317     Cr1325   2.015       .  S
C1318      O1319   1.260       .  A
C1318      C1419   1.447       .  S
O1319     Cr1326   1.988       .  S
O1320      C1321   1.265       .  A
O1320     Cr1326   2.015       .  S
C1321      O1322   1.261       .  A
C1321      C1422   1.446       .  S
O1322     Cr1327   1.987       .  S
O1323      C1324   1.265       .  A
O1323     Cr1327   2.015       .  S
C1324      C1425   1.446       .  S
Cr1325     O1328   1.783       .  S
Cr1326     O1328   1.783       .  S
Cr1327     O1328   1.783       .  S
O1329      C1337   1.260       .  A
O1329     Cr1347   1.987       .  S
O1330      C1331   1.265       .  A
O1330     Cr1347   2.014       .  S
C1331      O1332   1.260       .  A
C1331      C1406   1.447       .  S
O1332     Cr1348   1.988       .  S
O1333      C1334   1.265       .  A
O1333     Cr1348   2.015       .  S
C1334      O1335   1.261       .  A
C1334      C1407   1.447       .  S
O1335     Cr1349   1.987       .  S
O1336      C1337   1.264       .  A
O1336     Cr1349   2.014       .  S
C1337      C1410   1.446       .  S
O1338      C1346   1.266       .  A
O1338     Cr1347   2.014       .  S
O1339      C1340   1.261       .  A
O1339     Cr1347   1.991       .  S
C1340      O1341   1.266       .  A
C1340      C1423   1.449       .  S
O1341     Cr1348   2.014       .  S
O1342      C1343   1.262       .  A
O1342     Cr1348   1.992       .  S
C1343      O1344   1.265       .  A
C1343      C1417   1.449       .  S
O1344     Cr1349   2.014       .  S
O1345      C1346   1.262       .  A
O1345     Cr1349   1.991       .  S
C1346      C1428   1.448       .  S
Cr1347     O1350   1.783       .  S
Cr1348     O1350   1.782       .  S
Cr1349     O1350   1.783       .  S
C1351      C1400   1.459       .  S
C1351      C1352   1.417       .  A
C1352      C1397   1.459       .  S
C1352      C1353   1.417       .  A
C1353      C1404   1.459       .  S
C1354      C1402   1.459       .  S
C1354      C1843   1.417       .  A
C1355      C1395   1.459       .  S
C1355      C1842   1.417   1_545  A
C1355      C1356   1.417       .  A
C1357      C1458   1.449       .  S
C1357      N1358   1.364       .  A
C1357      N1362   1.359       .  A
N1358      C1847   1.364       .  A
C1359      C1414   1.450       .  S
C1359      N1846   1.364   1_545  A
C1359      N1360   1.360       .  A
N1360      C1849   1.358   1_545  A
C1361      C1401   1.444       .  S
C1361      N1848   1.358       .  A
C1361      N1362   1.358       .  A
C1363      C1441   1.448       .  S
C1363      N1852   1.363   1_545  A
C1363      N1368   1.361       .  A
N1364      C1851   1.363       .  A
N1364      C1365   1.363       .  A
C1365      C1409   1.446       .  S
C1365      N1366   1.359       .  A
N1366      C1367   1.357       .  A
C1367      C1399   1.444       .  S
C1367      N1856   1.359       .  A
N1368      C1855   1.359   1_545  A
C1369      C1412   1.451       .  S
C1369      N1370   1.360       .  A
C1369      N1374   1.364   1_655  A
N1370      C1371   1.358   1_655  A
C1371      C1393   1.444       .  S
N1372      C1373   1.359       .  A
C1373      C1454   1.449       .  S
C1375      C1405   1.447       .  S
C1375      N1376   1.363       .  A
C1375      N1380   1.359       .  A
N1376      C1377   1.363       .  A
C1377      C1446   1.448       .  S
C1377      N1378   1.360       .  A
N1378      C1379   1.358       .  A
C1379      C1396   1.444       .  S
C1379      N1380   1.357       .  A
C1381      C1408   1.447       .  S
C1381      N1382   1.359       .  A
C1383      C1403   1.444       .  S
C1383      N1384   1.359   1_455  A
N1384      C1385   1.360       .  A
C1385      C1448   1.448       .  S
C1385      N1386   1.363   1_655  A
C1387      C1459   1.449       .  S
C1387      N1388   1.365       .  A
C1387      N1392   1.359       .  A
N1388      C1389   1.365       .  A
C1389      C1416   1.450       .  S
C1389      N1390   1.360       .  A
N1390      C1391   1.358       .  A
C1391      C1398   1.444       .  S
C1391      N1392   1.357       .  A
C1393      C1394   1.211       .  T
C1395      C1396   1.211       .  T
C1397      C1398   1.211       .  T
C1399      C1400   1.211       .  T
C1401      C1402   1.211       .  T
C1403      C1404   1.211   1_455  T
C1405      C1406   1.213       .  T
C1407      C1408   1.213       .  T
C1409      C1410   1.212       .  T
C1411      C1412   1.215       .  T
C1413      C1414   1.215       .  T
C1415      C1416   1.215       .  T
C1417      C1418   1.214       .  T
C1419      C1420   1.213       .  T
C1421      C1422   1.212       .  T
C1423      C1424   1.214       .  T
C1425      C1426   1.212       .  T
C1427      C1428   1.214       .  T
C1429      C1430   1.211       .  T
C1431      C1432   1.210       .  T
C1433      C1434   1.210       .  T
C1435      C1436   1.211       .  T
C1437      C1438   1.210       .  T
C1439      C1440   1.211       .  T
C1441      C1442   1.213       .  T
C1443      C1444   1.213       .  T
C1445      C1446   1.213       .  T
C1447      C1448   1.213       .  T
C1449      C1450   1.213       .  T
C1451      C1452   1.212       .  T
C1453      C1454   1.214       .  T
C1455      C1456   1.212       .  T
C1457      C1458   1.214       .  T
C1459      C1460   1.214       .  T
C1461      C1462   1.212       .  T
C1463      C1464   1.212       .  T
O1465      C1473   1.261       .  A
O1465     Cr1727   1.989       .  S
O1466      C1467   1.265       .  A
O1466     Cr1727   2.015       .  S
C1467      O1468   1.262       .  A
C1467      C1704   1.449       .  S
O1468     Cr1484   1.990       .  S
O1469      C1470   1.265       .  A
O1469     Cr1484   2.016       .  S
C1470      O1471   1.261       .  A
C1470      C1701   1.448       .  S
O1471     Cr1729   1.989       .  S
O1472      C1473   1.265       .  A
O1472     Cr1729   2.015       .  S
C1473      C1697   1.448       .  S
O1474      C1482   1.265       .  A
O1474     Cr1483   2.012       .  S
O1475      C1476   1.261       .  A
O1475     Cr1483   1.990       .  S
C1476      O1477   1.265       .  A
C1476      C1707   1.446       .  S
O1477     Cr1728   2.012       .  S
O1478      C1479   1.261       .  A
O1478     Cr1728   1.990       .  S
C1479      O1480   1.265       .  A
C1479      C1706   1.446       .  S
O1480     Cr1485   2.011       .  S
O1481      C1482   1.261       .  A
O1481     Cr1485   1.990       .  S
C1482      C1699   1.446       .  S
Cr1483     O1709   1.989   1_554  S
Cr1483     O1710   2.015   1_554  S
Cr1483     O1486   1.782       .  S
Cr1484     O1721   2.012       .  S
Cr1484     O1722   1.990       .  S
Cr1484     O1730   1.782       .  S
Cr1485     O1715   1.989   1_554  S
Cr1485     O1716   2.015   1_554  S
Cr1485     O1486   1.783       .  S
O1486     Cr1728   1.782       .  S
O1487      C1495   1.265       .  A
O1487     Cr1505   2.012       .  S
O1488      C1489   1.262       .  A
O1488     Cr1505   1.992       .  S
C1489      O1490   1.265       .  A
C1489      C1689   1.448       .  S
O1490     Cr1506   2.012       .  S
O1491      C1492   1.262       .  A
O1491     Cr1506   1.992       .  S
C1492      O1493   1.265       .  A
C1492      C1686   1.447       .  S
O1493     Cr1507   2.011       .  S
O1494      C1495   1.262       .  A
O1494     Cr1507   1.992       .  S
C1495      C1691   1.448       .  S
O1496      C1504   1.261       .  A
O1496     Cr1749   1.988   1_554  S
O1497      C1498   1.264       .  A
O1497     Cr1749   2.013   1_554  S
C1498      O1499   1.261       .  A
C1498      C1693   1.447       .  S
O1499     Cr1750   1.989   1_554  S
O1500      C1501   1.265       .  A
O1500     Cr1750   2.014   1_554  S
C1501      O1502   1.261       .  A
C1501      C1688   1.447       .  S
O1502     Cr1751   1.988   1_554  S
O1503      C1504   1.264       .  A
O1503     Cr1751   2.013   1_554  S
C1504      C1696   1.446       .  S
Cr1505     O1740   1.988       .  S
Cr1505     O1741   2.013       .  S
Cr1505     O1508   1.783       .  S
Cr1506     O1743   1.989       .  S
Cr1506     O1744   2.014       .  S
Cr1506     O1508   1.783       .  S
Cr1507     O1746   1.988       .  S
Cr1507     O1747   2.013       .  S
Cr1507     O1508   1.783       .  S
C1509      C1683   1.459       .  S
C1510      C1676   1.457       .  S
C1510      C1511   1.416       .  A
C1511      C1674   1.459       .  S
C1511      C1512   1.416       .  A
C1512      C1678   1.457       .  S
C1513      C1680   1.459       .  S
C1514      C1682   1.457       .  S
C1515      C1687   1.447       .  S
C1515      N1516   1.359       .  A
C1515      N1520   1.363       .  A
N1516      C1517   1.358       .  A
C1517      C1684   1.444       .  S
N1518      C1519   1.360       .  A
C1519      C1671   1.449       .  S
C1521      C1705   1.446       .  S
C1521      N1522   1.359       .  A
C1523      C1677   1.442       .  S
C1523      N1524   1.357       .  A
N1524      C1525   1.359       .  A
C1525      C1670   1.446       .  S
C1525      N1526   1.363       .  A
C1527      C1694   1.447       .  S
C1527      N1528   1.359       .  A
C1527      N1532   1.364       .  A
N1528      C1529   1.357       .  A
C1529      C1673   1.443       .  S
C1529      N1530   1.358       .  A
N1530      C1531   1.360       .  A
C1531      C1668   1.449       .  S
C1531      N1532   1.364       .  A
C1533      C1665   1.446       .  S
C1533      N1534   1.359       .  A
C1535      C1675   1.442       .  S
C1535      N1536   1.357       .  A
N1536      C1537   1.359       .  A
C1537      C1700   1.446       .  S
C1537      N1538   1.363       .  A
C1539      C1664   1.447       .  S
C1539      N1540   1.359       .  A
C1539      N1544   1.363       .  A
N1540      C1541   1.358       .  A
C1541      C1681   1.442       .  S
C1541      N1542   1.357       .  A
N1542      C1543   1.359       .  A
C1543      C1708   1.446       .  S
C1543      N1544   1.363       .  A
C1545      C1662   1.449       .  S
C1545      N1546   1.360       .  A
C1545      N1550   1.364       .  A
N1546      C1547   1.358       .  A
C1547      C1679   1.444       .  S
N1548      C1549   1.359       .  A
C1549      C1695   1.447       .  S
O1551      C1559   1.266       .  A
O1551     Cr1569   2.015       .  S
O1552      C1553   1.262       .  A
O1552     Cr1569   1.991       .  S
C1553      O1554   1.266       .  A
C1553      C1659   1.450       .  S
O1554     Cr1570   2.016       .  S
O1555      C1556   1.262       .  A
O1555     Cr1570   1.993       .  S
C1556      O1557   1.266       .  A
C1556      C1655   1.450       .  S
O1557     Cr1571   2.015       .  S
O1558      C1559   1.262       .  A
O1558     Cr1571   1.992       .  S
C1559      C1657   1.450       .  S
O1560      C1568   1.260       .  A
O1560     Cr1569   1.987       .  S
O1561      C1562   1.265       .  A
O1561     Cr1569   2.015       .  S
C1562      O1563   1.260       .  A
C1562      C1663   1.447       .  S
O1563     Cr1570   1.988       .  S
O1564      C1565   1.265       .  A
O1564     Cr1570   2.015       .  S
C1565      O1566   1.261       .  A
C1565      C1666   1.446       .  S
O1566     Cr1571   1.987       .  S
O1567      C1568   1.265       .  A
O1567     Cr1571   2.015       .  S
C1568      C1669   1.446       .  S
Cr1569     O1572   1.783       .  S
Cr1570     O1572   1.783       .  S
Cr1571     O1572   1.783       .  S
O1573      C1581   1.260       .  A
O1573     Cr1591   1.987       .  S
O1574      C1575   1.265       .  A
O1574     Cr1591   2.014       .  S
C1575      O1576   1.260       .  A
C1575      C1650   1.447       .  S
O1576     Cr1592   1.988       .  S
O1577      C1578   1.265       .  A
O1577     Cr1592   2.015       .  S
C1578      O1579   1.261       .  A
C1578      C1651   1.447       .  S
O1579     Cr1593   1.987       .  S
O1580      C1581   1.265       .  A
O1580     Cr1593   2.014       .  S
C1581      C1654   1.446       .  S
O1582      C1590   1.266       .  A
O1582     Cr1591   2.014       .  S
O1583      C1584   1.261       .  A
O1583     Cr1591   1.990       .  S
C1584      O1585   1.266       .  A
C1584      C1667   1.449       .  S
O1585     Cr1592   2.014       .  S
O1586      C1587   1.262       .  A
O1586     Cr1592   1.992       .  S
C1587      O1588   1.265       .  A
C1587      C1661   1.449       .  S
O1588     Cr1593   2.014       .  S
O1589      C1590   1.262       .  A
O1589     Cr1593   1.991       .  S
C1590      C1672   1.448       .  S
Cr1591     O1594   1.783       .  S
Cr1592     O1594   1.782       .  S
Cr1593     O1594   1.783       .  S
C1595      C1644   1.459       .  S
C1595      C1596   1.417       .  A
C1596      C1641   1.459       .  S
C1596      C1597   1.417       .  A
C1597      C1648   1.459       .  S
C1598      C1646   1.459       .  S
C1599      C1639   1.459       .  S
C1599      C1600   1.417       .  A
C1601      C1702   1.449       .  S
C1601      N1602   1.364       .  A
C1601      N1606   1.359       .  A
C1603      C1658   1.450       .  S
C1603      N1604   1.360       .  A
C1605      C1645   1.444       .  S
C1605      N1606   1.358       .  A
C1607      C1685   1.448       .  S
C1607      N1612   1.361       .  A
N1608      C1609   1.363       .  A
C1609      C1653   1.446       .  S
C1609      N1610   1.359       .  A
N1610      C1611   1.357       .  A
C1611      C1643   1.444       .  S
C1613      C1656   1.451       .  S
C1613      N1614   1.360       .  A
C1613      N1618   1.364   1_655  A
N1614      C1615   1.358   1_655  A
C1615      C1637   1.444       .  S
N1616      C1617   1.359       .  A
C1617      C1698   1.449       .  S
C1619      C1649   1.447       .  S
C1619      N1620   1.363       .  A
C1619      N1624   1.359       .  A
N1620      C1621   1.363       .  A
C1621      C1690   1.448       .  S
C1621      N1622   1.360       .  A
N1622      C1623   1.358       .  A
C1623      C1640   1.444       .  S
C1623      N1624   1.357       .  A
C1625      C1652   1.447       .  S
C1625      N1626   1.359       .  A
C1627      C1647   1.444       .  S
C1627      N1628   1.358   1_455  A
N1628      C1629   1.360       .  A
C1629      C1692   1.448       .  S
C1629      N1630   1.363   1_655  A
C1631      C1703   1.449       .  S
C1631      N1632   1.365       .  A
C1631      N1636   1.359       .  A
N1632      C1633   1.365       .  A
C1633      C1660   1.450       .  S
C1633      N1634   1.360       .  A
N1634      C1635   1.358       .  A
C1635      C1642   1.444       .  S
C1635      N1636   1.357       .  A
C1637      C1638   1.211       .  T
C1639      C1640   1.211       .  T
C1641      C1642   1.211       .  T
C1643      C1644   1.211       .  T
C1645      C1646   1.211       .  T
C1647      C1648   1.211   1_455  T
C1649      C1650   1.213       .  T
C1651      C1652   1.213       .  T
C1653      C1654   1.212       .  T
C1655      C1656   1.215       .  T
C1657      C1658   1.215       .  T
C1659      C1660   1.215       .  T
C1661      C1662   1.214       .  T
C1663      C1664   1.213       .  T
C1665      C1666   1.212       .  T
C1667      C1668   1.214       .  T
C1669      C1670   1.212       .  T
C1671      C1672   1.214       .  T
C1673      C1674   1.211       .  T
C1675      C1676   1.210       .  T
C1677      C1678   1.210       .  T
C1679      C1680   1.211       .  T
C1681      C1682   1.210       .  T
C1683      C1684   1.211       .  T
C1685      C1686   1.213       .  T
C1687      C1688   1.213       .  T
C1689      C1690   1.213       .  T
C1691      C1692   1.213       .  T
C1693      C1694   1.213       .  T
C1695      C1696   1.212       .  T
C1697      C1698   1.214       .  T
C1699      C1700   1.212       .  T
C1701      C1702   1.214       .  T
C1703      C1704   1.214       .  T
C1705      C1706   1.212       .  T
C1707      C1708   1.212       .  T
O1709      C1717   1.261       .  A
O1710      C1711   1.265       .  A
C1711      O1712   1.262       .  A
C1711      C1948   1.449       .  S
O1712     Cr1728   1.990   1_556  S
O1713      C1714   1.265       .  A
O1713     Cr1728   2.016   1_556  S
C1714      O1715   1.261       .  A
C1714      C1945   1.448       .  S
O1716      C1717   1.265       .  A
C1717      C1941   1.448       .  S
O1718      C1726   1.265       .  A
O1718     Cr1727   2.012       .  S
O1719      C1720   1.261       .  A
O1719     Cr1727   1.990       .  S
C1720      O1721   1.265       .  A
C1720      C1951   1.446       .  S
O1722      C1723   1.261       .  A
C1723      O1724   1.265       .  A
C1723      C1950   1.446       .  S
O1724     Cr1729   2.011       .  S
O1725      C1726   1.261       .  A
O1725     Cr1729   1.990       .  S
C1726      C1943   1.446       .  S
Cr1727     O1730   1.782       .  S
Cr1729     O1730   1.783       .  S
O1731      C1739   1.265       .  A
O1731     Cr1749   2.012       .  S
O1732      C1733   1.262       .  A
O1732     Cr1749   1.992       .  S
C1733      O1734   1.265       .  A
C1733      C1933   1.448       .  S
O1734     Cr1750   2.012       .  S
O1735      C1736   1.262       .  A
O1735     Cr1750   1.992       .  S
C1736      O1737   1.265       .  A
C1736      C1930   1.447       .  S
O1737     Cr1751   2.011       .  S
O1738      C1739   1.262       .  A
O1738     Cr1751   1.992       .  S
C1739      C1935   1.448       .  S
O1740      C1748   1.261       .  A
O1741      C1742   1.264       .  A
C1742      O1743   1.261       .  A
C1742      C1937   1.447       .  S
O1744      C1745   1.264       .  A
C1745      O1746   1.261       .  A
C1745      C1932   1.447       .  S
O1747      C1748   1.264       .  A
C1748      C1940   1.446       .  S
Cr1749     O1752   1.783       .  S
Cr1750     O1752   1.783       .  S
Cr1751     O1752   1.783       .  S
C1753      C1927   1.459       .  S
C1754      C1920   1.457       .  S
C1754      C1755   1.416       .  A
C1755      C1918   1.459       .  S
C1755      C1756   1.416       .  A
C1756      C1922   1.457       .  S
C1757      C1924   1.459       .  S
C1758      C1926   1.457       .  S
C1759      C1931   1.447       .  S
C1759      N1760   1.359       .  A
C1759      N1764   1.363       .  A
N1760      C1761   1.358       .  A
C1761      C1928   1.444       .  S
N1762      C1763   1.360       .  A
C1763      C1915   1.449       .  S
C1765      C1949   1.446       .  S
C1765      N1766   1.359       .  A
C1767      C1921   1.442       .  S
C1767      N1768   1.357       .  A
N1768      C1769   1.359       .  A
C1769      C1914   1.446       .  S
C1769      N1770   1.363       .  A
C1771      C1938   1.447       .  S
C1771      N1772   1.358       .  A
C1771      N1776   1.364       .  A
N1772      C1773   1.357       .  A
C1773      C1917   1.443       .  S
C1773      N1774   1.358       .  A
N1774      C1775   1.360       .  A
C1775      C1912   1.449       .  S
C1775      N1776   1.364       .  A
C1777      C1909   1.447       .  S
C1777      N1778   1.359       .  A
C1779      C1919   1.442       .  S
C1779      N1780   1.357       .  A
N1780      C1781   1.359       .  A
C1781      C1944   1.446       .  S
C1781      N1782   1.363       .  A
C1783      C1908   1.447       .  S
C1783      N1784   1.359       .  A
C1783      N1788   1.363       .  A
N1784      C1785   1.358       .  A
C1785      C1925   1.442       .  S
C1785      N1786   1.357       .  A
N1786      C1787   1.359       .  A
C1787      C1952   1.446       .  S
C1787      N1788   1.363       .  A
C1789      C1906   1.449       .  S
C1789      N1790   1.360       .  A
C1789      N1794   1.364       .  A
N1790      C1791   1.358       .  A
C1791      C1923   1.444       .  S
N1792      C1793   1.359       .  A
C1793      C1939   1.447       .  S
O1795      C1803   1.266       .  A
O1795     Cr1813   2.015       .  S
O1796      C1797   1.262       .  A
O1796     Cr1813   1.992       .  S
C1797      O1798   1.266       .  A
C1797      C1903   1.450       .  S
O1798     Cr1814   2.016       .  S
O1799      C1800   1.262       .  A
O1799     Cr1814   1.993       .  S
C1800      O1801   1.266       .  A
C1800      C1899   1.450       .  S
O1801     Cr1815   2.015       .  S
O1802      C1803   1.262       .  A
O1802     Cr1815   1.992       .  S
C1803      C1901   1.450       .  S
O1804      C1812   1.260       .  A
O1804     Cr1813   1.987       .  S
O1805      C1806   1.265       .  A
O1805     Cr1813   2.015       .  S
C1806      O1807   1.260       .  A
C1806      C1907   1.447       .  S
O1807     Cr1814   1.988       .  S
O1808      C1809   1.265       .  A
O1808     Cr1814   2.015       .  S
C1809      O1810   1.261       .  A
C1809      C1910   1.447       .  S
O1810     Cr1815   1.987       .  S
O1811      C1812   1.265       .  A
O1811     Cr1815   2.015       .  S
C1812      C1913   1.446       .  S
Cr1813     O1816   1.783       .  S
Cr1814     O1816   1.783       .  S
Cr1815     O1816   1.783       .  S
O1817      C1825   1.260       .  A
O1817     Cr1835   1.987       .  S
O1818      C1819   1.265       .  A
O1818     Cr1835   2.014       .  S
C1819      O1820   1.260       .  A
C1819      C1894   1.447       .  S
O1820     Cr1836   1.988       .  S
O1821      C1822   1.265       .  A
O1821     Cr1836   2.015       .  S
C1822      O1823   1.261       .  A
C1822      C1895   1.447       .  S
O1823     Cr1837   1.987       .  S
O1824      C1825   1.264       .  A
O1824     Cr1837   2.014       .  S
C1825      C1898   1.446       .  S
O1826      C1834   1.266       .  A
O1826     Cr1835   2.014       .  S
O1827      C1828   1.261       .  A
O1827     Cr1835   1.991       .  S
C1828      O1829   1.266       .  A
C1828      C1911   1.449       .  S
O1829     Cr1836   2.014       .  S
O1830      C1831   1.262       .  A
O1830     Cr1836   1.992       .  S
C1831      O1832   1.265       .  A
C1831      C1905   1.449       .  S
O1832     Cr1837   2.014       .  S
O1833      C1834   1.262       .  A
O1833     Cr1837   1.991       .  S
C1834      C1916   1.448       .  S
Cr1835     O1838   1.783       .  S
Cr1836     O1838   1.782       .  S
Cr1837     O1838   1.783       .  S
C1839      C1888   1.459       .  S
C1839      C1840   1.417       .  A
C1840      C1885   1.459       .  S
C1840      C1841   1.417       .  A
C1841      C1892   1.459       .  S
C1842      C1890   1.459       .  S
C1843      C1883   1.459       .  S
C1843      C1844   1.417       .  A
C1845      C1946   1.449       .  S
C1845      N1846   1.364       .  A
C1845      N1850   1.359       .  A
C1847      C1902   1.450       .  S
C1847      N1848   1.360       .  A
C1849      C1889   1.444       .  S
C1849      N1850   1.358       .  A
C1851      C1929   1.448       .  S
C1851      N1856   1.361       .  A
N1852      C1853   1.363       .  A
C1853      C1897   1.446       .  S
C1853      N1854   1.359       .  A
N1854      C1855   1.357       .  A
C1855      C1887   1.444       .  S
C1857      C1900   1.451       .  S
C1857      N1858   1.360       .  A
C1857      N1862   1.364   1_655  A
N1858      C1859   1.358   1_655  A
C1859      C1881   1.444       .  S
N1860      C1861   1.359       .  A
C1861      C1942   1.449       .  S
C1863      C1893   1.447       .  S
C1863      N1864   1.363       .  A
C1863      N1868   1.359       .  A
N1864      C1865   1.363       .  A
C1865      C1934   1.448       .  S
C1865      N1866   1.360       .  A
N1866      C1867   1.358       .  A
C1867      C1884   1.444       .  S
C1867      N1868   1.357       .  A
C1869      C1896   1.447       .  S
C1869      N1870   1.359       .  A
C1871      C1891   1.444       .  S
C1871      N1872   1.358   1_455  A
N1872      C1873   1.360       .  A
C1873      C1936   1.448       .  S
C1873      N1874   1.363   1_655  A
C1875      C1947   1.449       .  S
C1875      N1876   1.365       .  A
C1875      N1880   1.359       .  A
N1876      C1877   1.365       .  A
C1877      C1904   1.450       .  S
C1877      N1878   1.360       .  A
N1878      C1879   1.358       .  A
C1879      C1886   1.444       .  S
C1879      N1880   1.357       .  A
C1881      C1882   1.211       .  T
C1883      C1884   1.211       .  T
C1885      C1886   1.211       .  T
C1887      C1888   1.211       .  T
C1889      C1890   1.211       .  T
C1891      C1892   1.211   1_455  T
C1893      C1894   1.213       .  T
C1895      C1896   1.213       .  T
C1897      C1898   1.212       .  T
C1899      C1900   1.215       .  T
C1901      C1902   1.215       .  T
C1903      C1904   1.215       .  T
C1905      C1906   1.214       .  T
C1907      C1908   1.213       .  T
C1909      C1910   1.212       .  T
C1911      C1912   1.214       .  T
C1913      C1914   1.212       .  T
C1915      C1916   1.214       .  T
C1917      C1918   1.211       .  T
C1919      C1920   1.210       .  T
C1921      C1922   1.210       .  T
C1923      C1924   1.211       .  T
C1925      C1926   1.210       .  T
C1927      C1928   1.211       .  T
C1929      C1930   1.213       .  T
C1931      C1932   1.213       .  T
C1933      C1934   1.213       .  T
C1935      C1936   1.213       .  T
C1937      C1938   1.213       .  T
C1939      C1940   1.212       .  T
C1941      C1942   1.214       .  T
C1943      C1944   1.212       .  T
C1945      C1946   1.214       .  T
C1947      C1948   1.214       .  T
C1949      C1950   1.212       .  T
C1951      C1952   1.212       .  T
