geometry optimzed in LAMMPS
_audit_creation_date              2020-11-30 
_audit_creation_method            'lammps2cif' 
_symmetry_space_group_name_H-M    'P1' 
_symmetry_Int_Tables_number       1 
_symmetry_cell_setting            triclinic 
loop_ 
_symmetry_equiv_pos_as_xyz 
  x,y,z 
_cell_length_a                    28.272660673583907 
_cell_length_b                    28.234819803012318 
_cell_length_c                    28.22774451369361 
_cell_angle_alpha                 90.07317906805575 
_cell_angle_beta                  90.00591394511672 
_cell_angle_gamma                 90.0439802957422 
loop_ 
_atom_site_label 
_atom_site_type_symbol 
_atom_site_fract_x 
_atom_site_fract_y 
_atom_site_fract_z 
_atom_site_charge 
C1          C  0.14343169  0.74320401  0.95575422     0.04920
C2          C  0.09320641  0.74224186  0.95765561    -0.11230
C3          C  0.06851590  0.74375418  0.00108177     0.02420
C4          C  0.09445590  0.74529299  0.04356593    -0.09760
C5          C  0.14458922  0.74618737  0.04408488     0.04910
C6          C  0.16870022  0.74584905  0.99961028    -0.09180
H7          H  0.07299480  0.74073315  0.92507426     0.10500
H8          H  0.07511443  0.74605819  0.07670547     0.08030
H9          H  0.20698823  0.74615685  0.99918759     0.07880
C10         C  0.43766923  0.62625652  0.04117633     0.04920
C11         C  0.44315289  0.65222501  0.99998705    -0.11230
C12         C  0.44209031  0.62887808  0.95688722     0.02420
C13         C  0.44415549  0.57974024  0.95469009    -0.09760
C14         C  0.44263262  0.55383596  0.99647197     0.04910
C15         C  0.43856349  0.57681264  0.04009286    -0.09180
H16         H  0.43765756  0.69034939  0.00089365     0.10500
H17         H  0.44154403  0.56174590  0.92077305     0.08030
H18         H  0.43210171  0.55658199  0.07209184     0.07880
C19         C  0.84870193  0.22452120  0.04454988     0.04920
C20         C  0.82386233  0.22266164  0.00046518    -0.11230
C21         C  0.84840141  0.22310478  0.95618525     0.02420
C22         C  0.89849481  0.22397764  0.95708161    -0.09760
C23         C  0.92405944  0.22469839  0.99979669     0.04910
C24         C  0.89897908  0.22545268  0.04303990    -0.09180
H25         H  0.78557206  0.22235050  0.00058972     0.10500
H26         H  0.91808360  0.22375068  0.92408090     0.08030
H27         H  0.91893895  0.22639316  0.07579682     0.07880
C28         C  0.55628612  0.34168357  0.96311822     0.04920
C29         C  0.55479907  0.39098101  0.96370463    -0.11230
C30         C  0.55002236  0.41431420  0.00692681     0.02420
C31         C  0.54775832  0.38876792  0.04902617    -0.09760
C32         C  0.54915141  0.33945887  0.04727652     0.04910
C33         C  0.54967772  0.31590004  0.00423741    -0.09180
H34         H  0.56186540  0.41094845  0.93164454     0.10500
H35         H  0.54959955  0.40705858  0.08281124     0.08030
H36         H  0.55521283  0.27778034  0.00362174     0.07880
C37         C  0.75733261  0.94472166  0.15322307     0.04920
C38         C  0.75909194  0.98928462  0.17729697    -0.11230
C39         C  0.75793224  0.03305026  0.15186718     0.02420
C40         C  0.75627109  0.03103391  0.10167786    -0.09760
C41         C  0.75563030  0.98767942  0.07703579     0.04910
C42         C  0.75574543  0.94515405  0.10298609    -0.09180
H43         H  0.75994775  0.98991504  0.21563556     0.10500
H44         H  0.75586242  0.06356081  0.08134245     0.08030
H45         H  0.75494631  0.91200267  0.08361740     0.07880
C46         C  0.63861706  0.03652141  0.44474451     0.04920
C47         C  0.66478238  0.99539043  0.44974367    -0.11230
C48         C  0.64174679  0.95217629  0.44759557     0.02420
C49         C  0.59262258  0.94974575  0.44840228    -0.09760
C50         C  0.56660790  0.99148914  0.44784183     0.04910
C51         C  0.58932224  0.03522117  0.44543269    -0.09180
H52         H  0.70289897  0.99660053  0.44464907     0.10500
H53         H  0.57483940  0.91583729  0.44482534     0.08030
H54         H  0.56900444  0.06724297  0.43940923     0.07880
C55         C  0.23451479  0.02257427  0.84772908     0.04920
C56         C  0.23611558  0.02251034  0.89800406    -0.11230
C57         C  0.23703883  0.98019341  0.92431994     0.02420
C58         C  0.23718949  0.93663524  0.90005332    -0.09760
C59         C  0.23549142  0.93422740  0.84991979     0.04910
C60         C  0.23353322  0.97779117  0.82408083    -0.09180
H61         H  0.23635612  0.05580977  0.91713133     0.10500
H62         H  0.23816378  0.90426885  0.92062335     0.08030
H63         H  0.23265215  0.97686011  0.78574894     0.07880
C64         C  0.35376579  0.93498035  0.55880189     0.04920
C65         C  0.32764554  0.97590196  0.55235481    -0.11230
C66         C  0.35074980  0.01916197  0.55274373     0.02420
C67         C  0.40002285  0.02133582  0.55237907    -0.09760
C68         C  0.42583795  0.97935805  0.55389136     0.04910
C69         C  0.40291521  0.93593379  0.55735390    -0.09180
H70         H  0.28954144  0.97487750  0.55757471     0.10500
H71         H  0.41798788  0.05521504  0.55494138     0.08030
H72         H  0.42308550  0.90395084  0.56415380     0.07880
C73         C  0.84573346  0.74908358  0.05076213     0.04920
C74         C  0.89594558  0.74694504  0.04905187    -0.11230
C75         C  0.92082791  0.74551251  0.00573544     0.02420
C76         C  0.89514503  0.74529586  0.96308377    -0.09760
C77         C  0.84508366  0.74735181  0.96219010     0.04910
C78         C  0.82072234  0.74995148  0.00661553    -0.09180
H79         H  0.91605796  0.74672548  0.08172681     0.10500
H80         H  0.91467133  0.74388151  0.93007721     0.08030
H81         H  0.78245540  0.75121284  0.00685223     0.07880
C82         C  0.55406741  0.63103726  0.04939026     0.04920
C83         C  0.55292409  0.58171877  0.05085571    -0.11230
C84         C  0.55241893  0.55650131  0.00843472     0.02420
C85         C  0.55424344  0.58018480  0.96523157    -0.09760
C86         C  0.55452873  0.62950387  0.96494555     0.04910
C87         C  0.55147131  0.65491766  0.00672791    -0.09180
H88         H  0.55680240  0.56321867  0.08430132     0.10500
H89         H  0.55862527  0.56051548  0.93247304     0.08030
H90         H  0.55641974  0.69312705  0.00606947     0.07880
C91         C  0.14723083  0.21863275  0.95158761     0.04920
C92         C  0.09697304  0.22074370  0.95298756    -0.11230
C93         C  0.07178561  0.22284631  0.99611813     0.02420
C94         C  0.09717424  0.22376171  0.03892152    -0.09760
C95         C  0.14719840  0.22172849  0.04012044     0.04910
C96         C  0.17190233  0.21846119  0.99588933    -0.09180
H97         H  0.07704947  0.22047735  0.92019636     0.10500
H98         H  0.07746226  0.22565386  0.07179355     0.08030
H99         H  0.21017113  0.21722799  0.99590134     0.07880
C100        C  0.44022110  0.33722297  0.94847108     0.04920
C101        C  0.44103456  0.38669269  0.94719652    -0.11230
C102        C  0.44066861  0.41178733  0.98982830     0.02420
C103        C  0.43778497  0.38797308  0.03276860    -0.09760
C104        C  0.43668219  0.33880010  0.03284402     0.04910
C105        C  0.44130481  0.31335511  0.99124928    -0.09180
H106        H  0.43802497  0.40531566  0.91375014     0.10500
H107        H  0.43247299  0.40754775  0.06547092     0.08030
H108        H  0.43615407  0.27517150  0.99180412     0.07880
C109        C  0.75766386  0.94033679  0.85419696     0.04920
C110        C  0.75601163  0.94219385  0.90440202    -0.11230
C111        C  0.75554796  0.98544544  0.92925837     0.02420
C112        C  0.75582465  0.02811610  0.90355694    -0.09760
C113        C  0.75744878  0.02887870  0.85333715     0.04910
C114        C  0.75903328  0.98434083  0.82899829    -0.09180
H115        H  0.75547841  0.90958844  0.92460657     0.10500
H116        H  0.75517316  0.06114788  0.92313708     0.08030
H117        H  0.75994023  0.98392043  0.79066168     0.07880
C118        C  0.64129450  0.02176598  0.56212516     0.04920
C119        C  0.59219972  0.02263196  0.55931473    -0.11230
C120        C  0.56760852  0.98000939  0.55767061     0.02420
C121        C  0.59164677  0.93701980  0.55962804    -0.09760
C122        C  0.64087277  0.93728983  0.56192647     0.04910
C123        C  0.66583353  0.97943331  0.55999198    -0.09180
H124        H  0.57318500  0.05583067  0.56288039     0.10500
H125        H  0.57219872  0.90408779  0.56335247     0.08030
H126        H  0.70374286  0.97928931  0.56658333     0.07880
C127        C  0.23563608  0.02915286  0.14674094     0.04920
C128        C  0.23731735  0.02692448  0.09658646    -0.11230
C129        C  0.23709605  0.98348187  0.07208963     0.02420
C130        C  0.23611304  0.94101548  0.09814554    -0.09760
C131        C  0.23447890  0.94060953  0.14840576     0.04910
C132        C  0.23357467  0.98535176  0.17233951    -0.09180
H133        H  0.23834781  0.05937595  0.07615423     0.10500
H134        H  0.23628113  0.90784281  0.07879456     0.08030
H135        H  0.23266156  0.98606719  0.21067188     0.07880
C136        C  0.35129376  0.94360654  0.44095232     0.04920
C137        C  0.40054721  0.94304241  0.44337052    -0.11230
C138        C  0.42495684  0.98592519  0.44388196     0.02420
C139        C  0.40074934  0.02860167  0.44062201    -0.09760
C140        C  0.35170714  0.02798955  0.43752829     0.04910
C141        C  0.32673881  0.98601722  0.44137710    -0.09180
H142        H  0.41971580  0.90986157  0.44083943     0.10500
H143        H  0.42007202  0.06148577  0.43578028     0.08030
H144        H  0.28885327  0.98593642  0.43464128     0.07880
C145        C  0.95148061  0.13048205  0.76094017     0.04920
C146        C  0.95237047  0.08010003  0.75958318    -0.11230
C147        C  0.99516397  0.05435492  0.75841066     0.02420
C148        C  0.03821378  0.07937007  0.75761254    -0.09760
C149        C  0.04000742  0.12953183  0.75896487     0.04910
C150        C  0.99604361  0.15474798  0.76129497    -0.09180
H151        H  0.91941073  0.06050061  0.75981547     0.10500
H152        H  0.07082487  0.05925591  0.75644007     0.08030
H153        H  0.99648735  0.19307871  0.76201470     0.07880
C154        C  0.95638644  0.42549080  0.64677801     0.04920
C155        C  0.99975792  0.42546463  0.66956194    -0.11230
C156        C  0.04061281  0.42172282  0.64278932     0.02420
C157        C  0.03896509  0.42444400  0.59357949    -0.09760
C158        C  0.99525064  0.42839267  0.57124975     0.04910
C159        C  0.95367031  0.42861832  0.59761980    -0.09180
H160        H  0.00124056  0.41856557  0.70743492     0.10500
H161        H  0.07083053  0.41927714  0.57277508     0.08030
H162        H  0.91966716  0.42648968  0.57989944     0.07880
C163        C  0.04117345  0.83041877  0.76222835     0.04920
C164        C  0.03991297  0.88071004  0.75974959    -0.11230
C165        C  0.99694470  0.90615808  0.76009162     0.02420
C166        C  0.95406734  0.88088923  0.76198134    -0.09760
C167        C  0.95261994  0.83074782  0.76447801     0.04910
C168        C  0.99681567  0.80587728  0.76524996    -0.09180
H169        H  0.07272206  0.90048178  0.75799668     0.10500
H170        H  0.92132289  0.90081513  0.76190802     0.08030
H171        H  0.99664853  0.76757378  0.76686749     0.07880
C172        C  0.03654100  0.53737853  0.64667722     0.04920
C173        C  0.99371941  0.53700362  0.67039853    -0.11230
C174        C  0.95233775  0.54277569  0.64486275     0.02420
C175        C  0.95292538  0.54274192  0.59540974    -0.09760
C176        C  0.99620141  0.53880126  0.57198056     0.04910
C177        C  0.03819812  0.53660677  0.59745960    -0.09180
H178        H  0.99323350  0.54176431  0.70863868     0.10500
H179        H  0.92073201  0.54927404  0.57555900     0.08030
H180        H  0.07191703  0.53875064  0.57918761     0.07880
C181        C  0.03996723  0.83752983  0.23981621     0.04920
C182        C  0.99520542  0.81368173  0.24009466    -0.11230
C183        C  0.95144917  0.83930152  0.24305581     0.02420
C184        C  0.95362410  0.88941889  0.24441002    -0.09760
C185        C  0.99686340  0.91406873  0.24297571     0.04910
C186        C  0.03943628  0.88795154  0.24117870    -0.09180
H187        H  0.99446556  0.77535560  0.23937396     0.10500
H188        H  0.92117646  0.90976573  0.24602759     0.08030
H189        H  0.07253183  0.90730906  0.24050416     0.07880
C190        C  0.03914201  0.54173856  0.35442159     0.04920
C191        C  0.04142713  0.53875248  0.40375195    -0.11230
C192        C  0.99952663  0.53980518  0.42982477     0.02420
C193        C  0.95622639  0.54495165  0.40719223    -0.09760
C194        C  0.95511012  0.54872792  0.35818003     0.04910
C195        C  0.99583994  0.54353877  0.33150448    -0.09180
H196        H  0.07531546  0.53985722  0.42173910     0.10500
H197        H  0.92434176  0.55090902  0.42779597     0.08030
H198        H  0.99468443  0.55079181  0.29368763     0.07880
C199        C  0.95247378  0.13842415  0.23857900     0.04920
C200        C  0.95340733  0.08808950  0.24105513    -0.11230
C201        C  0.99620080  0.06231287  0.24133106     0.02420
C202        C  0.03927887  0.08726781  0.24008349    -0.09760
C203        C  0.04106396  0.13737170  0.23758521     0.04910
C204        C  0.99703500  0.16260100  0.23618079    -0.09180
H205        H  0.92045701  0.06851958  0.24235958     0.10500
H206        H  0.07189740  0.06714335  0.24059561     0.08030
H207        H  0.99747160  0.20090193  0.23455139     0.07880
C208        C  0.03660209  0.42376625  0.35622393     0.04920
C209        C  0.03625830  0.42446154  0.40552709    -0.11230
C210        C  0.99331656  0.42952530  0.42909037     0.02420
C211        C  0.95116425  0.43275819  0.40376156    -0.09760
C212        C  0.95264482  0.43237101  0.35439767     0.04910
C213        C  0.99548976  0.43103200  0.33066654    -0.09180
H214        H  0.06834244  0.41702925  0.42527551     0.10500
H215        H  0.91749844  0.43162157  0.42217858     0.08030
H216        H  0.99585699  0.42613343  0.29244557     0.07880
C217        C  0.26062127  0.52927383  0.34882743     0.04920
C218        C  0.26251191  0.48559749  0.32315245    -0.11230
C219        C  0.26204772  0.44100482  0.34696562     0.02420
C220        C  0.26120927  0.44131670  0.39728457    -0.09760
C221        C  0.26038678  0.48376354  0.42354342     0.04910
C222        C  0.25970251  0.52718777  0.39904529    -0.09180
H223        H  0.26273162  0.48628287  0.28480524     0.10500
H224        H  0.26128785  0.40810640  0.41648221     0.08030
H225        H  0.25870407  0.55969585  0.41946375     0.07880
C226        C  0.13844937  0.44280278  0.05385484     0.04920
C227        C  0.08908176  0.44267840  0.05399315    -0.11230
C228        C  0.06505661  0.48580328  0.05488766     0.02420
C229        C  0.08988763  0.52826912  0.05710090    -0.09760
C230        C  0.13906695  0.52722624  0.05726325     0.04910
C231        C  0.16330653  0.48501295  0.05200629    -0.09180
H232        H  0.06975382  0.40967024  0.05757418     0.10500
H233        H  0.07122458  0.56132968  0.06307949     0.08030
H234        H  0.20152652  0.48464198  0.05641557     0.07880
O235        O  0.14576843  0.72999504  0.12760406    -0.84700
O236        O  0.37782081  0.80815085  0.23463361    -0.84870
O237        O  0.25117239  0.85697922  0.14974625    -0.86540
O238        O  0.32385472  0.72225676  0.12029641    -0.85290
O239        O  0.32912462  0.64922909  0.15640221    -0.84880
O240        O  0.21994748  0.88928836  0.21729984    -0.86250
O241        O  0.34129272  0.81404213  0.16166838    -0.84730
O242        O  0.21334149  0.76071818  0.09507629    -0.84320
Zr243      Zr  0.26828239  0.77215792  0.16366023     2.84310
O244        O  0.31593949  0.72358865  0.21273400    -1.06290
O245        O  0.19454982  0.78619948  0.19819905    -1.07020
C246        C  0.16989123  0.74570270  0.09174625     1.08410
C247        C  0.37290225  0.82470947  0.19238805     1.08350
C248        C  0.23518464  0.89281524  0.17384907     1.11330
C249        C  0.34132022  0.68037645  0.12587739     1.09110
H250        H  0.29544871  0.83799855  0.23549605     0.34670
O251        O  0.28190505  0.80679148  0.23827475    -1.27240
H252        H  0.23217658  0.68603635  0.14626774     0.34340
O253        O  0.23458522  0.69902499  0.17773121    -1.28920
O254        O  0.34593126  0.73977605  0.37146995    -0.84700
O255        O  0.11861111  0.65429012  0.26034975    -0.86190
O256        O  0.25774933  0.86291580  0.32852614    -0.84770
O257        O  0.36792316  0.63660394  0.24393257    -0.84820
O258        O  0.23206580  0.60340573  0.17405279    -0.84530
O259        O  0.12387690  0.83572863  0.25548411    -0.84340
O260        O  0.17147510  0.74701654  0.38119078    -0.84710
O261        O  0.24285894  0.61298964  0.34924094    -0.84170
O262        O  0.16481087  0.82000520  0.34480557    -0.85240
O263        O  0.27253374  0.58103562  0.28087071    -0.84390
O264        O  0.33114774  0.82762932  0.33307414    -0.84790
O265        O  0.09123856  0.76816413  0.22459535    -0.84510
O266        O  0.15955712  0.64057153  0.16744563    -0.84170
O267        O  0.39960834  0.70432145  0.27540572    -0.84570
O268        O  0.27844720  0.70856727  0.40354542    -0.84870
O269        O  0.15601069  0.64752809  0.33264305    -0.86210
Zr270      Zr  0.33129074  0.75767699  0.28608273     2.83100
Zr271      Zr  0.15995875  0.71248875  0.21213590     2.83500
Zr272      Zr  0.20847473  0.82040779  0.27221372     2.84090
Zr273      Zr  0.28254357  0.64934120  0.22643503     2.83360
Zr274      Zr  0.22399495  0.69771977  0.33499090     2.84220
O275        O  0.20964605  0.66504069  0.26047997    -1.06780
O276        O  0.25731342  0.77132082  0.31976801    -1.06280
C277        C  0.32175239  0.72360357  0.40731717     1.08380
C278        C  0.12551357  0.63528635  0.30133323     1.11000
C279        C  0.29954792  0.85741714  0.34596138     1.08550
C280        C  0.40342055  0.66116788  0.26022369     1.08910
C281        C  0.19034788  0.60908367  0.15643842     1.08500
C282        C  0.08783362  0.81175932  0.23984767     1.08050
C283        C  0.15376102  0.78869016  0.37581306     1.08470
C284        C  0.25852631  0.57735947  0.32453657     1.07990
H285        H  0.14308874  0.74764310  0.29872569     0.34660
O286        O  0.17447583  0.74549868  0.28564275    -1.27880
H287        H  0.31722798  0.66413009  0.31969140     0.34690
O288        O  0.29726426  0.68384850  0.30003500    -1.29260
C289        C  0.34892390  0.24541494  0.45128609     0.04920
C290        C  0.32398552  0.24436072  0.49537981    -0.11230
C291        C  0.34848808  0.24091438  0.53965317     0.02420
C292        C  0.39853644  0.23988474  0.53872917    -0.09760
C293        C  0.42407438  0.24206220  0.49608861     0.04910
C294        C  0.39914352  0.24431166  0.45288146    -0.09180
H295        H  0.28570024  0.24486489  0.49517148     0.10500
H296        H  0.41812633  0.23796889  0.57167362     0.08030
H297        H  0.41921531  0.24556529  0.42020445     0.07880
C298        C  0.05531301  0.12775452  0.45200023     0.04920
C299        C  0.05086946  0.15152233  0.49469551    -0.11230
C300        C  0.05311141  0.12586087  0.53637106     0.02420
C301        C  0.05081729  0.07669889  0.53583529    -0.09760
C302        C  0.05033371  0.05309107  0.49260479     0.04910
C303        C  0.05334946  0.07835345  0.45027936    -0.09180
H304        H  0.05685417  0.18957336  0.49580218     0.10500
H305        H  0.05433859  0.05688492  0.56858853     0.08030
H306        H  0.05896030  0.05979574  0.41708110     0.07880
O307        O  0.25183178  0.10590781  0.84563530    -0.84700
O308        O  0.17290839  0.21257213  0.61306104    -0.84870
O309        O  0.12371633  0.12904512  0.74102646    -0.86540
O310        O  0.25698876  0.09905494  0.66548567    -0.85290
O311        O  0.32977401  0.13548369  0.65853515    -0.84880
O312        O  0.09265615  0.19714903  0.77213464    -0.86250
O313        O  0.16493161  0.14039954  0.65075674    -0.84730
O314        O  0.22030471  0.07320584  0.77835867    -0.84320
Zr315      Zr  0.20895911  0.14163284  0.72288595     2.84310
O316        O  0.25858803  0.19037154  0.67558684    -1.06290
O317        O  0.19606522  0.17636232  0.79674996    -1.07020
C318        C  0.23552409  0.07002177  0.82185257     1.08410
C319        C  0.15454443  0.17116876  0.61906033     1.08350
C320        C  0.08834817  0.15376804  0.75723072     1.11330
C321        C  0.29803892  0.10528658  0.64650851     1.09110
H322        H  0.14430667  0.21424641  0.69585655     0.34670
O323        O  0.17571032  0.21648421  0.70892064    -1.27240
H324        H  0.29529589  0.12402955  0.75814914     0.34340
O325        O  0.28270353  0.15563091  0.75587029    -1.28920
O326        O  0.24275716  0.34904026  0.64470505    -0.84700
O327        O  0.32858688  0.23891642  0.87138060    -0.86190
O328        O  0.11992993  0.30561155  0.73229503    -0.84770
O329        O  0.34770473  0.22233302  0.62324669    -0.84820
O330        O  0.37822965  0.15005316  0.75793532    -0.84530
O331        O  0.14807512  0.23400190  0.86751217    -0.84340
O332        O  0.23372219  0.36050023  0.81662137    -0.84710
O333        O  0.36815549  0.32798918  0.74983870    -0.84170
O334        O  0.16092170  0.32408931  0.82330146    -0.85240
O335        O  0.40124897  0.26003333  0.72054237    -0.84390
O336        O  0.15572722  0.31069563  0.65901636    -0.84790
O337        O  0.21552624  0.20283476  0.89977236    -0.84510
O338        O  0.34120846  0.14418669  0.83069349    -0.84170
O339        O  0.27998039  0.25261131  0.59070437    -0.84570
O340        O  0.27343198  0.38091341  0.71265640    -0.84870
O341        O  0.33209863  0.31228613  0.83577850    -0.86210
Zr342      Zr  0.22524056  0.26338142  0.65869475     2.83100
Zr343      Zr  0.27012927  0.19017259  0.83072779     2.83500
Zr344      Zr  0.16234936  0.25030386  0.78245345     2.84090
Zr345      Zr  0.33332609  0.20407682  0.70822343     2.83360
Zr346      Zr  0.28394844  0.31256924  0.76670462     2.84220
O347        O  0.31746725  0.23849655  0.78108697    -1.06780
O348        O  0.21114919  0.29710776  0.73278799    -1.06280
C349        C  0.25853960  0.38482301  0.66936207     1.08380
C350        C  0.34590472  0.28078661  0.86524109     1.11000
C351        C  0.12561055  0.32311924  0.69051641     1.08550
C352        C  0.32349366  0.23828423  0.58739563     1.08910
C353        C  0.37230064  0.13245242  0.79971063     1.08500
C354        C  0.17221100  0.21833737  0.90342299     1.08050
C355        C  0.19157342  0.35600077  0.83326270     1.08470
C356        C  0.40428375  0.30379729  0.73507348     1.07990
H357        H  0.23409129  0.27797737  0.84805871     0.34660
O358        O  0.23669621  0.26394994  0.81703515    -1.27880
H359        H  0.31854212  0.29738214  0.67365175     0.34690
O360        O  0.29871219  0.27757463  0.69339441    -1.29260
C361        C  0.34626977  0.72197974  0.45571784     0.04920
C362        C  0.32111993  0.71848553  0.49980006    -0.11230
C363        C  0.34537623  0.71882986  0.54443848     0.02420
C364        C  0.39541291  0.72132093  0.54365042    -0.09760
C365        C  0.42109042  0.72374464  0.50109628     0.04910
C366        C  0.39638896  0.72450994  0.45770855    -0.09180
H367        H  0.28286804  0.71688592  0.49942141     0.10500
H368        H  0.41496560  0.72109065  0.57667692     0.08030
H369        H  0.41659573  0.72664986  0.42516603     0.07880
C370        C  0.05753161  0.83828738  0.54185940     0.04920
C371        C  0.05228348  0.81256098  0.50043004    -0.11230
C372        C  0.05360847  0.83618061  0.45755267     0.02420
C373        C  0.05187360  0.88533718  0.45575157    -0.09760
C374        C  0.05257113  0.91096878  0.49779107     0.04910
C375        C  0.05636551  0.88772823  0.54123534    -0.09180
H376        H  0.05775197  0.77442866  0.50103862     0.10500
H377        H  0.05458868  0.90354198  0.42200310     0.08030
H378        H  0.06231097  0.90778487  0.57349497     0.07880
C379        C  0.26078734  0.52214008  0.64868406     0.04920
C380        C  0.26010975  0.52219852  0.59833454    -0.11230
C381        C  0.25964455  0.47996366  0.57161158     0.02420
C382        C  0.25903414  0.43621801  0.59556748    -0.09760
C383        C  0.25988985  0.43347958  0.64571038     0.04910
C384        C  0.26147705  0.47707261  0.67193428    -0.09180
H385        H  0.26013370  0.55558247  0.57944447     0.10500
H386        H  0.25833493  0.40393692  0.57476876     0.08030
H387        H  0.26173742  0.47593039  0.71026374     0.07880
C388        C  0.14257486  0.43860046  0.93416550     0.04920
C389        C  0.16790747  0.47989757  0.94127687    -0.11230
C390        C  0.14375114  0.52243315  0.94425941     0.02420
C391        C  0.09445546  0.52322162  0.94616880    -0.09760
C392        C  0.06963434  0.48060641  0.94369963     0.04910
C393        C  0.09351523  0.43808170  0.93729979    -0.09180
H394        H  0.20584412  0.48010088  0.93484755     0.10500
H395        H  0.07559918  0.55667163  0.94613720     0.08030
H396        H  0.07395035  0.40578055  0.93003159     0.07880
O397        O  0.14400794  0.72495156  0.87191199    -0.84700
O398        O  0.37453194  0.80601246  0.76435349    -0.84870
O399        O  0.32020295  0.71515406  0.88359878    -0.86540
O400        O  0.25154910  0.85013823  0.85075294    -0.85290
O401        O  0.22178909  0.88211259  0.78252692    -0.84880
O402        O  0.32861421  0.64277628  0.84621719    -0.86250
O403        O  0.33796965  0.81163846  0.83720185    -0.84730
O404        O  0.21204106  0.75460498  0.90451194    -0.84320
Zr405      Zr  0.26806164  0.76478985  0.83711418     2.84310
O406        O  0.28298749  0.79798515  0.76293506    -1.06290
O407        O  0.23449167  0.69198200  0.82049935    -1.07020
C408        C  0.16828189  0.74073124  0.90780029     1.08410
C409        C  0.36863926  0.82368283  0.80612159     1.08350
C410        C  0.33906205  0.67404801  0.87755526     1.11330
C411        C  0.23639331  0.88588266  0.82597125     1.09110
H412        H  0.34894997  0.71524757  0.80070223     0.34670
O413        O  0.31757185  0.71722629  0.78756839    -1.27240
H414        H  0.17530632  0.79943071  0.82135419     0.34340
O415        O  0.19506463  0.77938729  0.80180190    -1.28920
O416        O  0.34482187  0.73388628  0.62862910    -0.84700
O417        O  0.11524392  0.65170447  0.73821586    -0.86190
O418        O  0.36899898  0.62891390  0.75763257    -0.84770
O419        O  0.26232920  0.85974158  0.67761089    -0.84820
O420        O  0.12531671  0.82910956  0.74539270    -0.84530
O421        O  0.23603068  0.60183060  0.83308830    -0.84340
O422        O  0.24295525  0.60566663  0.65093467    -0.84710
O423        O  0.16863227  0.74024490  0.62254119    -0.84170
O424        O  0.27343877  0.57320697  0.71869106    -0.85240
O425        O  0.16551637  0.81416992  0.65731295    -0.84390
O426        O  0.40095559  0.69638607  0.72606354    -0.84790
O427        O  0.16378476  0.63927005  0.83946133    -0.84510
O428        O  0.09234570  0.76154493  0.77567626    -0.84170
O429        O  0.33516632  0.82314834  0.67235079    -0.84570
O430        O  0.27751062  0.70235001  0.59630280    -0.84870
O431        O  0.15224479  0.64495051  0.66553932    -0.86210
Zr432      Zr  0.33199883  0.75026311  0.71415407     2.83100
Zr433      Zr  0.16013732  0.70593719  0.78745190     2.83500
Zr434      Zr  0.28398704  0.64229220  0.77418753     2.84090
Zr435      Zr  0.21038450  0.81373281  0.72841564     2.83360
Zr436      Zr  0.22388055  0.69011088  0.66573981     2.84220
O437        O  0.17616034  0.73962977  0.71418559    -1.06780
O438        O  0.29781203  0.67634155  0.70014813    -1.06280
C439        C  0.32060384  0.71822838  0.59263282     1.08380
C440        C  0.12113195  0.63365194  0.69664404     1.11000
C441        C  0.40468361  0.65323320  0.74173796     1.08550
C442        C  0.30458120  0.85460199  0.66115042     1.08910
C443        C  0.08915965  0.80512704  0.76097906     1.08500
C444        C  0.19528469  0.60926987  0.85229598     1.08050
C445        C  0.25903470  0.56978725  0.67486650     1.08470
C446        C  0.15256588  0.78279868  0.62724325     1.07990
H447        H  0.19771843  0.62460588  0.73855234     0.34660
O448        O  0.21044207  0.65618901  0.74066429    -1.27880
H449        H  0.26070920  0.77724144  0.64844733     0.34690
O450        O  0.25776941  0.76367953  0.67960526    -1.29260
C451        C  0.73232228  0.44518465  0.35310205     0.04920
C452        C  0.73093116  0.49004996  0.32942739    -0.11230
C453        C  0.73185965  0.53384886  0.35524562     0.02420
C454        C  0.73275098  0.53147701  0.40544475    -0.09760
C455        C  0.73283923  0.48791902  0.42977373     0.04910
C456        C  0.73303504  0.44548365  0.40341352    -0.09180
H457        H  0.73064956  0.49089837  0.29109000     0.10500
H458        H  0.73299837  0.56391218  0.42601162     0.08030
H459        H  0.73351092  0.41224189  0.42254601     0.07880
C460        C  0.85028699  0.53310408  0.06466430     0.04920
C461        C  0.89955347  0.53311176  0.06282940    -0.11230
C462        C  0.92320704  0.49014984  0.05782162     0.02420
C463        C  0.89812380  0.44781287  0.05599812    -0.09760
C464        C  0.84897218  0.44896354  0.05778082     0.04910
C465        C  0.82491615  0.49162034  0.05863149    -0.09180
H466        H  0.91925726  0.56542067  0.06955963     0.10500
H467        H  0.91673272  0.41422696  0.05734662     0.08030
H468        H  0.78689499  0.49169910  0.06455059     0.07880
C469        C  0.53959717  0.63938572  0.26682465     0.04920
C470        C  0.49498081  0.66307634  0.26635311    -0.11230
C471        C  0.45151702  0.63731183  0.26216663     0.02420
C472        C  0.45369122  0.58731971  0.25964409    -0.09760
C473        C  0.49690119  0.56290442  0.26118408     0.04910
C474        C  0.53929861  0.58904250  0.26443213    -0.09180
H475        H  0.49414999  0.70138460  0.26779326     0.10500
H476        H  0.42131958  0.56690478  0.25697229     0.08030
H477        H  0.57241006  0.56976096  0.26515642     0.07880
C478        C  0.54012273  0.93213993  0.14770332     0.04920
C479        C  0.49666418  0.93142524  0.17029722    -0.11230
C480        C  0.45620622  0.92446076  0.14366363     0.02420
C481        C  0.45768162  0.92533484  0.09451969    -0.09760
C482        C  0.50113140  0.92967617  0.07199743     0.04910
C483        C  0.54283686  0.93226119  0.09829291    -0.09180
H484        H  0.49520052  0.92655480  0.20848883     0.10500
H485        H  0.42594291  0.91824017  0.07402733     0.08030
H486        H  0.57688216  0.93058083  0.08066423     0.07880
O487        O  0.74038986  0.86110735  0.15485183    -0.84700
O488        O  0.82442398  0.75274674  0.38395276    -0.84870
O489        O  0.73261883  0.87343104  0.33129225    -0.86540
O490        O  0.86738698  0.84014330  0.26064205    -0.85290
O491        O  0.89899800  0.77183360  0.23059114    -0.84880
O492        O  0.66015420  0.83640987  0.33955185    -0.86250
O493        O  0.83073449  0.82549371  0.34726914    -0.84730
O494        O  0.77055957  0.89433184  0.22247318    -0.84320
Zr495      Zr  0.78191359  0.82688629  0.27849230     2.84310
O496        O  0.81426944  0.75235740  0.29304217    -1.06290
O497        O  0.70899641  0.81027884  0.24495138    -1.07020
C498        C  0.75600427  0.89722176  0.17882442     1.08410
C499        C  0.84306892  0.79395979  0.37741121     1.08350
C500        C  0.69128270  0.86793865  0.34982074     1.11330
C501        C  0.90301249  0.81531968  0.24500930     1.09110
H502        H  0.73240286  0.79045813  0.35974789     0.34670
O503        O  0.73441306  0.77729702  0.32832179    -1.27240
H504        H  0.81575783  0.81096615  0.18514912     0.34340
O505        O  0.79586841  0.79148864  0.20514179    -1.28920
O506        O  0.74936371  0.61795297  0.35588567    -0.84700
O507        O  0.66847840  0.72691252  0.12549185    -0.86190
O508        O  0.64564868  0.74569931  0.37949999    -0.84770
O509        O  0.87681475  0.66794290  0.27185922    -0.84820
O510        O  0.84519199  0.73405489  0.13512993    -0.84530
O511        O  0.61849078  0.82265201  0.24620263    -0.84340
O512        O  0.62303470  0.64119466  0.25179314    -0.84710
O513        O  0.75630134  0.61170186  0.17999089    -0.84170
O514        O  0.59047459  0.70885061  0.28245419    -0.85240
O515        O  0.82983559  0.64680081  0.17544094    -0.84390
O516        O  0.71311472  0.71426838  0.41148507    -0.84790
O517        O  0.65477515  0.82734512  0.17311806    -0.84510
O518        O  0.77755051  0.76415810  0.10235016    -0.84170
O519        O  0.83971538  0.66062012  0.34437842    -0.84570
O520        O  0.71760992  0.58664805  0.28814233    -0.84870
O521        O  0.66315315  0.65427236  0.16257511    -0.86210
Zr522      Zr  0.76720786  0.70339886  0.34251073     2.83100
Zr523      Zr  0.72238349  0.77674145  0.17045226     2.83500
Zr524      Zr  0.65935337  0.76426570  0.29472651     2.84090
Zr525      Zr  0.83023398  0.71807947  0.22032945     2.83360
Zr526      Zr  0.70713555  0.65591763  0.23457846     2.84220
O527        O  0.75629367  0.70374910  0.18624091    -1.06780
O528        O  0.69324355  0.69018761  0.30848841    -1.06280
C529        C  0.73298610  0.58242931  0.33133573     1.08380
C530        C  0.65135726  0.68494535  0.13134383     1.11000
C531        C  0.66972632  0.72914988  0.41509841     1.08550
C532        C  0.87158726  0.65057219  0.31372036     1.08910
C533        C  0.82096453  0.74914256  0.09898601     1.08500
C534        C  0.62505401  0.84070888  0.20470506     1.08050
C535        C  0.58714476  0.66523073  0.26728672     1.08470
C536        C  0.79839191  0.61654467  0.16319907     1.07990
H537        H  0.64150766  0.72808550  0.20803646     0.34660
O538        O  0.67291932  0.73045502  0.22104920    -1.27880
H539        H  0.79404903  0.63773024  0.27076337     0.34690
O540        O  0.78071430  0.66901214  0.26807917    -1.29260
C541        C  0.64325036  0.72385770  0.55118877     0.04920
C542        C  0.59307286  0.72492134  0.54924740    -0.11230
C543        C  0.56849102  0.72637267  0.50581855     0.02420
C544        C  0.59438185  0.72779683  0.46334019    -0.09760
C545        C  0.64447332  0.72681645  0.46277238     0.04910
C546        C  0.66857884  0.72415833  0.50726490    -0.09180
H547        H  0.57277958  0.72418654  0.58180270     0.10500
H548        H  0.57502013  0.72914156  0.43023148     0.08030
H549        H  0.70686195  0.72367414  0.50774882     0.07880
C550        C  0.93570212  0.84056216  0.54676051     0.04920
C551        C  0.94107872  0.81687670  0.50416693    -0.11230
C552        C  0.94027658  0.84263392  0.46247637     0.02420
C553        C  0.94199003  0.89193989  0.46334480    -0.09760
C554        C  0.94195632  0.91529085  0.50684186     0.04910
C555        C  0.93833062  0.88979496  0.54886036    -0.09180
H556        H  0.93505623  0.77883765  0.50286661     0.10500
H557        H  0.93920516  0.91195257  0.43066599     0.08030
H558        H  0.93231040  0.90817177  0.58210601     0.07880
C559        C  0.54095086  0.62891125  0.74413851     0.04920
C560        C  0.49676419  0.65352483  0.74175182    -0.11230
C561        C  0.45266520  0.62865616  0.74159228     0.02420
C562        C  0.45392882  0.57850338  0.74246964    -0.09760
C563        C  0.49675800  0.55326136  0.74364942     0.04910
C564        C  0.53973723  0.57862028  0.74500739    -0.09180
H565        H  0.49664854  0.69186306  0.74137823     0.10500
H566        H  0.42113101  0.55861603  0.74176190     0.08030
H567        H  0.57254486  0.55884306  0.74619056     0.07880
C568        C  0.45307678  0.92156052  0.85777686     0.04920
C569        C  0.45400023  0.92371882  0.90714143    -0.11230
C570        C  0.49739616  0.92880314  0.93005294     0.02420
C571        C  0.53916123  0.93048919  0.90425675    -0.09760
C572        C  0.53720427  0.92726112  0.85518627     0.04910
C573        C  0.49423375  0.92664362  0.83169505    -0.09180
H574        H  0.42205405  0.91742915  0.92748172     0.10500
H575        H  0.57298944  0.92901937  0.92240863     0.08030
H576        H  0.49353863  0.91994276  0.79374257     0.07880
C577        C  0.73121769  0.44019592  0.65302001     0.04920
C578        C  0.73211226  0.44189045  0.60274619    -0.11230
C579        C  0.73222739  0.48511766  0.57785774     0.02420
C580        C  0.73222973  0.52778154  0.60373259    -0.09760
C581        C  0.73139608  0.52847323  0.65400731     0.04910
C582        C  0.73013342  0.48409392  0.67826220    -0.09180
H583        H  0.73253175  0.40921568  0.58257508     0.10500
H584        H  0.73271296  0.56084202  0.58428330     0.08030
H585        H  0.72991361  0.48371465  0.71661413     0.07880
C586        C  0.85426010  0.52242159  0.94582904     0.04920
C587        C  0.90348382  0.52271285  0.94657815    -0.11230
C588        C  0.92764088  0.47977711  0.94681460     0.02420
C589        C  0.90293586  0.43705580  0.94534082    -0.09760
C590        C  0.85361157  0.43791625  0.94542143     0.04910
C591        C  0.82936287  0.48033980  0.94873602    -0.09180
H592        H  0.92273179  0.55572190  0.94242694     0.10500
H593        H  0.92174115  0.40391733  0.94049994     0.08030
H594        H  0.79116818  0.48063572  0.94410399     0.07880
O595        O  0.84415257  0.72912754  0.87856889    -0.84700
O596        O  0.61304216  0.80684481  0.77022470    -0.84870
O597        O  0.74062987  0.85650218  0.85448341    -0.86540
O598        O  0.66627564  0.72288995  0.88426802    -0.85290
O599        O  0.66068124  0.64951374  0.84857607    -0.84880
O600        O  0.77203463  0.88771195  0.78659970    -0.86250
O601        O  0.65105201  0.81591284  0.84208875    -0.84730
O602        O  0.77682325  0.76087981  0.91061082    -0.84320
Zr603      Zr  0.72288208  0.77129750  0.84153352     2.84310
O604        O  0.67561431  0.72102488  0.79348882    -1.06290
O605        O  0.79692768  0.78434629  0.80727062    -1.07020
C606        C  0.82009161  0.74569618  0.91426460     1.08410
C607        C  0.61940190  0.82600698  0.81115180     1.08350
C608        C  0.75675856  0.89196014  0.82988546     1.11330
C609        C  0.64825645  0.68132012  0.87849242     1.09110
H610        H  0.69617990  0.83590405  0.76872904     0.34670
O611        O  0.70927663  0.80447878  0.76671542    -1.27240
H612        H  0.75894635  0.68440621  0.85966466     0.34340
O613        O  0.75635349  0.69734089  0.82821071    -1.28920
O614        O  0.64332532  0.73820035  0.63562102    -0.84700
O615        O  0.87218618  0.65324076  0.74345991    -0.86190
O616        O  0.73321998  0.85933968  0.67664747    -0.84770
O617        O  0.62464350  0.63035070  0.76200778    -0.84820
O618        O  0.75982811  0.60131315  0.83242057    -0.84530
O619        O  0.86850586  0.83063680  0.74925615    -0.84340
O620        O  0.81778577  0.74677535  0.62307422    -0.84710
O621        O  0.74829588  0.61205474  0.65521294    -0.84170
O622        O  0.82473285  0.81949658  0.65990508    -0.85240
O623        O  0.71975420  0.57899281  0.72351772    -0.84390
O624        O  0.66000825  0.82337642  0.67218241    -0.84790
O625        O  0.90039349  0.76324599  0.78095855    -0.84510
O626        O  0.83239148  0.63850452  0.83818605    -0.84170
O627        O  0.59175209  0.69793935  0.73174196    -0.84570
O628        O  0.71122185  0.70892123  0.60263259    -0.84870
O629        O  0.83602868  0.64899584  0.67028939    -0.86210
Zr630      Zr  0.65890898  0.75433814  0.72058015     2.83100
Zr631      Zr  0.83078250  0.71014877  0.79354869     2.83500
Zr632      Zr  0.78293641  0.81797436  0.73320721     2.84090
Zr633      Zr  0.70919380  0.64664199  0.77950017     2.83360
Zr634      Zr  0.76659438  0.69643091  0.67030584     2.84220
O635        O  0.78156027  0.66279389  0.74454130    -1.06780
O636        O  0.73286869  0.76891944  0.68689902    -1.06280
C637        C  0.66773780  0.72359827  0.59940361     1.08380
C638        C  0.86640794  0.63621422  0.70135445     1.11000
C639        C  0.69151978  0.85325096  0.65913332     1.08550
C640        C  0.58865796  0.65428413  0.74617397     1.08910
C641        C  0.80176155  0.60705370  0.84963675     1.08500
C642        C  0.90430433  0.80629789  0.76498482     1.08050
C643        C  0.83497892  0.78881651  0.62804042     1.08470
C644        C  0.73325048  0.57601851  0.67953656     1.07990
H645        H  0.84776136  0.74585702  0.70580527     0.34660
O646        O  0.81672207  0.74338526  0.71969225    -1.27880
H647        H  0.67396007  0.66134246  0.68631056     0.34690
O648        O  0.69385144  0.68116593  0.70598713    -1.29260
C649        C  0.45280545  0.33913924  0.25783504     0.04920
C650        C  0.45365647  0.38946443  0.25701640    -0.11230
C651        C  0.49645109  0.41518084  0.25769745     0.02420
C652        C  0.53949421  0.39030215  0.25813056    -0.09760
C653        C  0.54111439  0.34019048  0.25896652     0.04910
C654        C  0.49719832  0.31492494  0.25949763    -0.09180
H655        H  0.42069190  0.40900455  0.25635447     0.10500
H656        H  0.57215577  0.41042285  0.25836145     0.08030
H657        H  0.49759095  0.27658836  0.25984812     0.07880
C658        C  0.53691753  0.04811146  0.14383421     0.04920
C659        C  0.49590967  0.04178186  0.16985090    -0.11230
C660        C  0.45298489  0.03984137  0.14626692     0.02420
C661        C  0.45135611  0.03702923  0.09703770    -0.09760
C662        C  0.49336530  0.03932319  0.07148986     0.04910
C663        C  0.53640955  0.04519047  0.09463464    -0.09180
H664        H  0.49637720  0.04863713  0.20777726     0.10500
H665        H  0.41764240  0.03783182  0.07867279     0.08030
H666        H  0.56834618  0.05213855  0.07445636     0.07880
O667        O  0.84765636  0.24310169  0.12806539    -0.84700
O668        O  0.61409060  0.16695055  0.23416508    -0.84870
O669        O  0.74152836  0.11677812  0.15139693    -0.86540
O670        O  0.66691275  0.24974644  0.12244048    -0.85290
O671        O  0.66003628  0.32250277  0.15914038    -0.84880
O672        O  0.77231504  0.08536273  0.21944803    -0.86250
O673        O  0.65195275  0.15911813  0.16210592    -0.84730
O674        O  0.77992929  0.21217801  0.09597393    -0.84320
Zr675      Zr  0.72455086  0.20186034  0.16437455     2.84310
O676        O  0.67771184  0.25155642  0.21317315    -1.06290
O677        O  0.79806688  0.18836319  0.19902424    -1.07020
C678        C  0.82355405  0.22667472  0.09241659     1.08410
C679        C  0.61967470  0.14928012  0.19237878     1.08350
C680        C  0.75726688  0.08129528  0.17608511     1.11330
C681        C  0.64760845  0.29053918  0.12932396     1.09110
H682        H  0.69667242  0.13687788  0.23635296     0.34670
O683        O  0.71026284  0.16808637  0.23891672    -1.27240
H684        H  0.75953580  0.28790811  0.14639176     0.34340
O685        O  0.75754543  0.27556923  0.17811131    -1.28920
O686        O  0.64709980  0.23392932  0.37141551    -0.84700
O687        O  0.87287514  0.32125182  0.26037661    -0.86190
O688        O  0.73283682  0.11312135  0.32887545    -0.84770
O689        O  0.62511723  0.34033767  0.24343087    -0.84820
O690        O  0.75965684  0.37095021  0.17304303    -0.84530
O691        O  0.86859545  0.14004235  0.25571038    -0.84340
O692        O  0.81983157  0.22593132  0.38262576    -0.84710
O693        O  0.74978322  0.36136569  0.35129456    -0.84170
O694        O  0.82492359  0.15273669  0.34640191    -0.85240
O695        O  0.72057523  0.39432218  0.28324530    -0.84390
O696        O  0.65889726  0.14756058  0.33133984    -0.84790
O697        O  0.90103796  0.20741784  0.22436272    -0.84510
O698        O  0.83181764  0.33322401  0.16572083    -0.84170
O699        O  0.59254987  0.27252163  0.27360296    -0.84570
O700        O  0.71459648  0.26436564  0.40432830    -0.84870
O701        O  0.83671665  0.32683673  0.33344297    -0.86210
Zr702      Zr  0.66046188  0.21799145  0.28567540     2.83100
Zr703      Zr  0.83226320  0.26239809  0.21237050     2.83500
Zr704      Zr  0.78364533  0.15472413  0.27300150     2.84090
Zr705      Zr  0.71026370  0.32617253  0.22715436     2.83360
Zr706      Zr  0.76864317  0.27680142  0.33582319     2.84220
O707        O  0.78291312  0.30969833  0.26130156    -1.06780
O708        O  0.73433854  0.20402047  0.31966992    -1.06280
C709        C  0.67140910  0.24896251  0.40766791     1.08380
C710        C  0.86634309  0.33984372  0.30163459     1.11000
C711        C  0.69047857  0.11825144  0.34515033     1.08550
C712        C  0.58916334  0.31585021  0.25858464     1.08910
C713        C  0.80084690  0.36448678  0.15448995     1.08500
C714        C  0.90452476  0.16393705  0.23956791     1.08050
C715        C  0.83580588  0.18335222  0.37808949     1.08470
C716        C  0.73434969  0.39747031  0.32720114     1.07990
H717        H  0.84949063  0.22647937  0.30020505     0.34660
O718        O  0.81840524  0.22924184  0.28646821    -1.27880
H719        H  0.67534832  0.31112129  0.32039018     0.34690
O720        O  0.69530263  0.29140479  0.30065469    -1.29260
C721        C  0.45188699  0.32941097  0.73530322     0.04920
C722        C  0.45252799  0.37972173  0.73773897    -0.11230
C723        C  0.49515587  0.40553233  0.74026407     0.02420
C724        C  0.53820072  0.38077488  0.74105269    -0.09760
C725        C  0.54001389  0.33073319  0.73851384     0.04910
C726        C  0.49633305  0.30533942  0.73502958    -0.09180
H727        H  0.41953536  0.39921825  0.73754524     0.10500
H728        H  0.57074008  0.40098056  0.74321632     0.08030
H729        H  0.49688833  0.26702699  0.73355752     0.07880
C730        C  0.45554740  0.03725654  0.85385928     0.04920
C731        C  0.45272065  0.03691102  0.90313088    -0.11230
C732        C  0.49428450  0.03867303  0.92950322     0.02420
C733        C  0.53799668  0.04192575  0.90707279    -0.09760
C734        C  0.53968410  0.04187416  0.85779532     0.04910
C735        C  0.49894437  0.03631534  0.83122780    -0.09180
H736        H  0.41866512  0.03956717  0.92065943     0.10500
H737        H  0.56984155  0.04822429  0.92761858     0.08030
H738        H  0.50049193  0.04091162  0.79300348     0.07880
C739        C  0.64667194  0.24683834  0.54468825     0.04920
C740        C  0.67146695  0.24961689  0.50039681    -0.11230
C741        C  0.64685321  0.24856754  0.45591996     0.02420
C742        C  0.59685849  0.24609698  0.45703354    -0.09760
C743        C  0.57149358  0.24442836  0.49979576     0.04910
C744        C  0.59650790  0.24434616  0.54302695    -0.09180
H745        H  0.70972004  0.25122631  0.50050856     0.10500
H746        H  0.57711028  0.24584458  0.42412330     0.08030
H747        H  0.57649312  0.24273891  0.57571935     0.07880
C748        C  0.93306716  0.13014294  0.46263486     0.04920
C749        C  0.93496200  0.08085378  0.46304868    -0.11230
C750        C  0.93983850  0.05754402  0.50622554     0.02420
C751        C  0.94140878  0.08309509  0.54842221    -0.09760
C752        C  0.94013286  0.13239683  0.54676046     0.04910
C753        C  0.93955844  0.15595539  0.50380265    -0.09180
H754        H  0.92830977  0.06084452  0.43087709     0.10500
H755        H  0.93978859  0.06480680  0.58217200     0.08030
H756        H  0.93397338  0.19406966  0.50328296     0.07880
O757        O  0.84764862  0.23878448  0.87231896    -0.84700
O758        O  0.61907182  0.15523711  0.76413441    -0.84870
O759        O  0.67277511  0.24850530  0.88474996    -0.86540
O760        O  0.74117891  0.11280642  0.85239699    -0.85290
O761        O  0.77114876  0.07995253  0.78456831    -0.84880
O762        O  0.66535284  0.32083165  0.84747746    -0.86250
O763        O  0.65420828  0.15136506  0.83783779    -0.84730
O764        O  0.77975691  0.20948972  0.90545748    -0.84320
Zr765      Zr  0.72431934  0.19776036  0.83786915     2.84310
O766        O  0.71005734  0.16382140  0.76359165    -1.06290
O767        O  0.75844365  0.27009851  0.82117419    -1.07020
C768        C  0.82336098  0.22384153  0.90845192     1.08410
C769        C  0.62436844  0.13844160  0.80626992     1.08350
C770        C  0.65522056  0.29035783  0.87947429     1.11330
C771        C  0.75649846  0.07673003  0.82814804     1.09110
H772        H  0.64334794  0.24680502  0.80162233     0.34670
O773        O  0.67452816  0.24434987  0.78802787    -1.27240
H774        H  0.81731874  0.16292728  0.82231745     0.34340
O775        O  0.79752239  0.18276931  0.80261697    -1.28920
O776        O  0.64731893  0.22890277  0.62868682    -0.84700
O777        O  0.87786234  0.30986849  0.73817311    -0.86190
O778        O  0.62328911  0.33112602  0.75698741    -0.84770
O779        O  0.73250322  0.10168032  0.67703140    -0.84820
O780        O  0.86728279  0.13182803  0.74579060    -0.84530
O781        O  0.75735518  0.36027260  0.83275743    -0.84340
O782        O  0.74918040  0.35678809  0.65300497    -0.84710
O783        O  0.82626972  0.22459922  0.62487911    -0.84170
O784        O  0.71855452  0.38826349  0.72119302    -0.85240
O785        O  0.83173502  0.15121189  0.66039214    -0.84390
O786        O  0.59213177  0.26354874  0.72465309    -0.84790
O787        O  0.83040023  0.32412935  0.83754052    -0.84510
O788        O  0.90046052  0.19975968  0.77518803    -0.84170
O789        O  0.65976512  0.13823341  0.67072627    -0.84570
O790        O  0.71461087  0.26106863  0.59708405    -0.84870
O791        O  0.83970283  0.31807717  0.66630791    -0.86210
Zr792      Zr  0.66137825  0.21076174  0.71392010     2.83100
Zr793      Zr  0.83270718  0.25597935  0.78763302     2.83500
Zr794      Zr  0.70838916  0.31898927  0.77501730     2.84090
Zr795      Zr  0.78265148  0.14790109  0.72916547     2.83360
Zr796      Zr  0.76844790  0.27228802  0.66655914     2.84220
O797        O  0.81552525  0.22246629  0.71502164    -1.06780
O798        O  0.69463221  0.28519349  0.70088232    -1.06280
C799        C  0.67140653  0.24554839  0.59304457     1.08380
C800        C  0.87156828  0.32854468  0.69696425     1.11000
C801        C  0.58803582  0.30663659  0.74020360     1.08550
C802        C  0.69060924  0.10684963  0.65979678     1.08910
C803        C  0.90356062  0.15598790  0.76066644     1.08500
C804        C  0.79887722  0.35395487  0.85067653     1.08050
C805        C  0.73300879  0.39219575  0.67760350     1.08470
C806        C  0.84461728  0.18327761  0.63096713     1.07990
H807        H  0.79484859  0.33737361  0.73956661     0.34660
O808        O  0.78205760  0.30580319  0.74148699    -1.27880
H809        H  0.73323895  0.18459541  0.64817026     0.34690
O810        O  0.73572302  0.19786460  0.67952655    -1.29260
O811        O  0.14782019  0.23975460  0.12398724    -0.84700
O812        O  0.37586412  0.15729230  0.23408409    -0.84870
O813        O  0.32148831  0.24838281  0.11266405    -0.86540
O814        O  0.25241965  0.11328069  0.14606321    -0.85290
O815        O  0.22195124  0.08162648  0.21414857    -0.84880
O816        O  0.32840769  0.32142420  0.14904422    -0.86250
O817        O  0.33848539  0.14947712  0.16185491    -0.84730
O818        O  0.21533652  0.20894443  0.09147657    -0.84320
Zr819      Zr  0.26987366  0.19867482  0.15963166     2.84310
O820        O  0.28410078  0.16644641  0.23411726    -1.06290
O821        O  0.23588663  0.27186071  0.17527237    -1.07020
C822        C  0.17197863  0.22367991  0.08808702     1.08410
C823        C  0.36883659  0.13771504  0.19344138     1.08350
C824        C  0.33893129  0.29027277  0.11765775     1.11330
C825        C  0.23679212  0.07761819  0.17077808     1.09110
H826        H  0.35084824  0.24932239  0.19522814     0.34670
O827        O  0.31953285  0.24696718  0.20850163    -1.27240
H828        H  0.17642825  0.16475068  0.17506749     0.34340
O829        O  0.19634840  0.18470535  0.19458782    -1.28920
O830        O  0.34847627  0.23057715  0.36718064    -0.84700
O831        O  0.11624419  0.31057900  0.26033986    -0.86190
O832        O  0.36945964  0.33727768  0.23947799    -0.84770
O833        O  0.26254772  0.10441500  0.31902872    -0.84820
O834        O  0.12547824  0.13718096  0.25248811    -0.84530
O835        O  0.23536512  0.36338107  0.16481937    -0.84340
O836        O  0.24475684  0.35773974  0.34533232    -0.84710
O837        O  0.17073771  0.22417999  0.37461038    -0.84170
O838        O  0.27453775  0.39026388  0.27726973    -0.85240
O839        O  0.16589929  0.15069630  0.33914569    -0.84390
O840        O  0.40176564  0.27003701  0.27115571    -0.84790
O841        O  0.16228763  0.32721334  0.16056117    -0.84510
O842        O  0.09309590  0.20473648  0.22171550    -0.84170
O843        O  0.33507002  0.14167803  0.32548236    -0.84570
O844        O  0.28090386  0.26132058  0.39955107    -0.84870
O845        O  0.15367857  0.31677094  0.33282230    -0.86210
Zr846      Zr  0.33365049  0.21424946  0.28232493     2.83100
Zr847      Zr  0.16181598  0.25836665  0.20916362     2.83500
Zr848      Zr  0.28504216  0.32169093  0.22174023     2.84090
Zr849      Zr  0.21124401  0.15045695  0.26812570     2.83360
Zr850      Zr  0.22604682  0.27357079  0.33085914     2.84220
O851        O  0.17796962  0.22465866  0.28228799    -1.06780
O852        O  0.29934828  0.28796145  0.29585452    -1.06280
C853        C  0.32421629  0.24594783  0.40312780     1.08380
C854        C  0.12165240  0.32742195  0.30253616     1.11000
C855        C  0.40517236  0.31352090  0.25604976     1.08550
C856        C  0.30442634  0.10996830  0.33621241     1.08910
C857        C  0.08945729  0.16160195  0.23728080     1.08500
C858        C  0.19357973  0.35722092  0.14734712     1.08050
C859        C  0.26046961  0.39352862  0.32114771     1.08470
C860        C  0.15359592  0.18211562  0.36946666     1.07990
H861        H  0.19859631  0.33918116  0.25891363     0.34660
O862        O  0.21187453  0.30787239  0.25620785    -1.27880
H863        H  0.26204846  0.18702666  0.34816024     0.34690
O864        O  0.25935759  0.20024566  0.31684323    -1.29260
C865        C  0.91796641  0.15646204  0.58406811    -0.11480
C866        C  0.88557671  0.17233038  0.60547355    -0.13040
C867        C  0.59740212  0.09905211  0.81900310    -0.11480
C868        C  0.57614876  0.06690873  0.83550319    -0.13040
C869        C  0.87308462  0.16937949  0.40728993    -0.11480
C870        C  0.90531954  0.15242431  0.42806058    -0.13040
C871        C  0.49205247  0.04110629  0.97941372    -0.11480
C872        C  0.49188348  0.04109628  0.02153269    -0.13040
C873        C  0.41572688  0.06326293  0.16909810    -0.11480
C874        C  0.39430345  0.09650095  0.18316894    -0.13040
C875        C  0.57102630  0.07725105  0.16495268    -0.11480
C876        C  0.59130289  0.11088672  0.17971177    -0.13040
C877        C  0.82897433  0.40120931  0.92270719    -0.11480
C878        C  0.81121934  0.37996578  0.89108315    -0.13040
C879        C  0.81469371  0.57964363  0.88873986    -0.11480
C880        C  0.83112922  0.55865222  0.92113797    -0.13040
C881        C  0.59328466  0.86663410  0.82110058    -0.11480
C882        C  0.57301035  0.90118863  0.83330396    -0.13040
C883        C  0.49623637  0.50107852  0.74308830    -0.11480
C884        C  0.49516619  0.45768494  0.74203285    -0.13040
C885        C  0.93961311  0.96532207  0.50791638    -0.11480
C886        C  0.93879386  0.00747863  0.50758125    -0.13040
C887        C  0.87326529  0.80156865  0.59951231    -0.11480
C888        C  0.90676073  0.81745128  0.57984015    -0.13040
C889        C  0.88376212  0.80539629  0.40329226    -0.11480
C890        C  0.91645465  0.82067899  0.42478729    -0.13040
C891        C  0.50242179  0.92728072  0.02204220    -0.11480
C892        C  0.50000473  0.92708159  0.97998036    -0.13040
C893        C  0.57739853  0.91206856  0.17376894    -0.11480
C894        C  0.59914446  0.88120904  0.19225020    -0.13040
C895        C  0.49730365  0.51075771  0.25942397    -0.11480
C896        C  0.49656210  0.46736078  0.25833385    -0.13200
C897        C  0.82766645  0.56791929  0.09187084    -0.11480
C898        C  0.81116610  0.58867207  0.12440774    -0.13040
C899        C  0.82604764  0.41155179  0.08063157    -0.11480
C900        C  0.81170838  0.39032554  0.11379219    -0.13040
C901        C  0.73265845  0.48581288  0.52555816    -0.11480
C902        C  0.73285997  0.48672969  0.48207292    -0.13040
C903        C  0.41719973  0.89522445  0.83562919    -0.11480
C904        C  0.39601118  0.86293356  0.81904032    -0.13040
C905        C  0.01964238  0.48069290  0.94300962    -0.11480
C906        C  0.97756416  0.47988456  0.94391097    -0.13040
C907        C  0.18399164  0.58408761  0.89353793    -0.11480
C908        C  0.16750544  0.56149464  0.92486571    -0.13040
C909        C  0.08301736  0.81510927  0.57777673    -0.11480
C910        C  0.11425907  0.79679495  0.59909155    -0.13040
C911        C  0.51642596  0.72608377  0.50441185    -0.11480
C912        C  0.47313716  0.72530892  0.50240349    -0.13040
C913        C  0.39886804  0.09254476  0.81189153    -0.11480
C914        C  0.41957614  0.06015874  0.82865516    -0.13040
C915        C  0.16405228  0.40541727  0.90438104    -0.11480
C916        C  0.17885635  0.38520234  0.87082193    -0.13040
C917        C  0.05298677  0.00306340  0.49264659    -0.11480
C918        C  0.05388312  0.96099906  0.49548804    -0.13040
C919        C  0.08025480  0.14673702  0.57218741    -0.11480
C920        C  0.11452480  0.16001760  0.59235978    -0.13040
C921        C  0.08211070  0.15175303  0.41753918    -0.11480
C922        C  0.11452576  0.16913029  0.39713737    -0.13040
C923        C  0.47614282  0.24228441  0.49711455    -0.11480
C924        C  0.51944127  0.24297499  0.49885582    -0.13040
C925        C  0.40115496  0.86295013  0.17965405    -0.11480
C926        C  0.42154575  0.89636777  0.16487814    -0.13040
C927        C  0.07948743  0.81333546  0.42214578    -0.11480
C928        C  0.11358039  0.79951180  0.40219027    -0.13040
C929        C  0.97315336  0.48877145  0.05917556    -0.11480
C930        C  0.01518126  0.48673877  0.05825772    -0.13040
C931        C  0.16270322  0.56199938  0.08347709    -0.11480
C932        C  0.17834286  0.58204099  0.11684566    -0.13040
C933        C  0.16250635  0.40545980  0.07623799    -0.11480
C934        C  0.18047711  0.38380877  0.10749073    -0.13040
C935        C  0.25991544  0.48267101  0.47583845    -0.11480
C936        C  0.25967434  0.48152452  0.51931961    -0.13040
C937        C  0.07154092  0.39708886  0.33322882    -0.11480
C938        C  0.09284711  0.36513641  0.31633384    -0.13040
C939        C  0.89209876  0.38069620  0.31315288    -0.11480
C940        C  0.91448200  0.41212277  0.32984806    -0.13040
C941        C  0.92046201  0.57802413  0.33857189    -0.11480
C942        C  0.89979510  0.61203620  0.32565555    -0.13040
C943        C  0.07667963  0.56351053  0.33003663    -0.11480
C944        C  0.09901933  0.59493494  0.31320850    -0.13040
C945        C  0.99710167  0.96644163  0.24307146    -0.11480
C946        C  0.99629782  0.00996108  0.24260184    -0.13040
C947        C  0.99833952  0.54109855  0.52198823    -0.11480
C948        C  0.00057136  0.54111446  0.47987914    -0.13040
C949        C  0.07329774  0.56061881  0.67034438    -0.11480
C950        C  0.09459553  0.59352000  0.68527903    -0.13040
C951        C  0.91590024  0.56675366  0.66878896    -0.11480
C952        C  0.89404875  0.59745592  0.68743349    -0.13040
C953        C  0.99291029  0.42698385  0.52125166    -0.11480
C954        C  0.99226422  0.42718008  0.47910066    -0.13040
C955        C  0.09874928  0.36280039  0.67842994    -0.11480
C956        C  0.07722756  0.39555447  0.66355225    -0.13040
C957        C  0.92028597  0.40101017  0.67038549    -0.11480
C958        C  0.89884202  0.36821345  0.68541748    -0.13040
C959        C  0.99646013  0.95849240  0.75878701    -0.11480
C960        C  0.99534237  0.00199593  0.75830469    -0.13040
C961        C  0.31645311  0.08263654  0.37539970    -0.11480
C962        C  0.33035661  0.06260275  0.40942846    -0.13040
C963        C  0.32827489  0.90622139  0.41765920    -0.11480
C964        C  0.31187410  0.88429323  0.38577241    -0.13040
C965        C  0.66351490  0.05774132  0.58793652    -0.11480
C966        C  0.67838346  0.07897343  0.62090302    -0.13040
C967        C  0.66346986  0.90054507  0.58637851    -0.11480
C968        C  0.67939065  0.87931394  0.61886462    -0.13040
C969        C  0.37781125  0.30195819  0.08975700    -0.11480
C970        C  0.41081656  0.31654584  0.06859266    -0.13040
C971        C  0.38634261  0.29377168  0.89088692    -0.11480
C972        C  0.41787579  0.31235480  0.91159677    -0.13040
C973        C  0.61174470  0.67208387  0.10477148    -0.11480
C974        C  0.57894956  0.65507326  0.08491033    -0.13040
C975        C  0.57696238  0.65288531  0.92744130    -0.11480
C976        C  0.60841650  0.66948790  0.90526773    -0.13040
C977        C  0.47565128  0.98082957  0.55716697    -0.11480
C978        C  0.51768610  0.98055486  0.55838340    -0.13040
C979        C  0.32584017  0.05627932  0.57453579    -0.11480
C980        C  0.30931927  0.07852122  0.60617855    -0.13040
C981        C  0.33252398  0.90122843  0.58816196    -0.11480
C982        C  0.31750827  0.88207468  0.62228764    -0.13040
C983        C  0.23768164  0.98243958  0.01990808    -0.11480
C984        C  0.23766128  0.98146910  0.97649331    -0.13040
C985        C  0.47487829  0.98648674  0.44317999    -0.11480
C986        C  0.51684599  0.98893002  0.44440852    -0.13040
C987        C  0.66081220  0.07209467  0.41810726    -0.11480
C988        C  0.67746417  0.09208009  0.38512636    -0.13040
C989        C  0.66571078  0.91667618  0.42263210    -0.11480
C990        C  0.68031884  0.89552025  0.38944960    -0.13040
C991        C  0.75500907  0.98680621  0.02485890    -0.11480
C992        C  0.75498060  0.98610068  0.98144188    -0.13040
C993        C  0.55287987  0.46429864  0.00851596    -0.11480
C994        C  0.55380705  0.50644526  0.00911511    -0.13040
C995        C  0.60593330  0.30073535  0.10456431    -0.11480
C996        C  0.57256799  0.31578327  0.08404586    -0.13040
C997        C  0.61703254  0.30331360  0.90808121    -0.11480
C998        C  0.58416403  0.31943988  0.92857687    -0.13040
C999        C  0.97624495  0.22456759  0.99876375    -0.11480
C1000       C  0.01961251  0.22400292  0.99696256    -0.13040
C1001       C  0.43984602  0.50389018  0.99358732    -0.11480
C1002       C  0.43916156  0.46185445  0.99020736    -0.13040
C1003       C  0.38029749  0.66705150  0.09822396    -0.11480
C1004       C  0.41202710  0.64924109  0.07715038    -0.13040
C1005       C  0.41508240  0.65139975  0.92215889    -0.11480
C1006       C  0.38003954  0.66425210  0.90318935    -0.13040
C1007       C  0.01634427  0.74381469  0.00251471    -0.11480
C1008       C  0.97298997  0.74434762  0.00455791    -0.13040
loop_ 
_geom_bond_atom_site_label_1 
_geom_bond_atom_site_label_2 
_geom_bond_distance 
_geom_bond_site_symmetry_2 
_ccdc_geom_bond_type 
C1            C2   1.421       .  A
C1            C6   1.431       .  A
C1          C408   1.527       .  S
C2            C3   1.411   1_556  A
C2            H7   1.083       .  S
C3            C4   1.406       .  A
C3         C1007   1.476       .  S
C4            C5   1.418       .  A
C4            H8   1.084       .  S
C5            C6   1.429   1_554  A
C5          C246   1.524       .  S
C6            H9   1.083       .  S
C10          C11   1.384   1_554  A
C10          C15   1.397       .  A
C10        C1004   1.406       .  S
C11          C12   1.383       .  A
C11          H16   1.088   1_556  S
C12          C13   1.390       .  A
C12        C1005   1.397       .  S
C13          C14   1.389       .  A
C13          H17   1.086       .  S
C14          C15   1.396   1_556  A
C14        C1001   1.415       .  S
C15          H18   1.085       .  S
C19          C20   1.430       .  A
C19          C24   1.422       .  A
C19         C678   1.528       .  S
C20          C21   1.430   1_554  A
C20          H25   1.083       .  S
C21          C22   1.417       .  A
C21         C768   1.522       .  S
C22          C23   1.406       .  A
C22          H26   1.084       .  S
C23          C24   1.412   1_556  A
C23         C999   1.476       .  S
C24          H27   1.083       .  S
C28          C29   1.393       .  A
C28          C33   1.384   1_556  A
C28         C998   1.402       .  S
C29          C30   1.392   1_556  A
C29          H34   1.085       .  S
C30          C31   1.392       .  A
C30         C993   1.414       .  S
C31          C32   1.394       .  A
C31          H35   1.085       .  S
C32          C33   1.384       .  A
C32         C996   1.402       .  S
C33          H36   1.088       .  S
C37          C38   1.430       .  A
C37          C42   1.419       .  A
C37         C498   1.525       .  S
C38          C39   1.430   1_565  A
C38          H43   1.083       .  S
C39          C40   1.419       .  A
C39         C680   1.523       .  S
C40          C41   1.407   1_545  A
C40          H44   1.084       .  S
C41          C42   1.407       .  A
C41         C991   1.473       .  S
C42          H45   1.084       .  S
C46          C47   1.385   1_545  A
C46          C51   1.394       .  A
C46         C987   1.403       .  S
C47          C48   1.384       .  A
C47          H52   1.088       .  S
C48          C49   1.391       .  A
C48         C989   1.400       .  S
C49          C50   1.390       .  A
C49          H53   1.086       .  S
C50          C51   1.393   1_565  A
C50         C986   1.412       .  S
C51          H54   1.085       .  S
C55          C56   1.420       .  A
C55          C60   1.429   1_545  A
C55         C318   1.527       .  S
C56          C57   1.408   1_545  A
C56          H61   1.084       .  S
C57          C58   1.407       .  A
C57         C984   1.473       .  S
C58          C59   1.418       .  A
C58          H62   1.084       .  S
C59          C60   1.432       .  A
C59         C411   1.523       .  S
C60          H63   1.083       .  S
C64          C65   1.384       .  A
C64          C69   1.390       .  A
C64         C981   1.399       .  S
C65          C66   1.385   1_565  A
C65          H70   1.088       .  S
C66          C67   1.394       .  A
C66         C979   1.404       .  S
C67          C68   1.393   1_545  A
C67          H71   1.085       .  S
C68          C69   1.390       .  A
C68         C977   1.412       .  S
C69          H72   1.086       .  S
C73          C74   1.422       .  A
C73          C78   1.433       .  A
C73         C533   1.531       .  S
C74          C75   1.411       .  A
C74          H79   1.084       .  S
C75          C76   1.406   1_554  A
C75        C1008   1.476       .  S
C76          C77   1.417       .  A
C76          H80   1.084       .  S
C77          C78   1.433   1_556  A
C77         C606   1.527       .  S
C78          H81   1.083       .  S
C82          C83   1.394       .  A
C82          C87   1.383       .  A
C82         C974   1.399       .  S
C83          C84   1.392       .  A
C83          H88   1.085       .  S
C84          C85   1.393   1_554  A
C84         C994   1.414       .  S
C85          C86   1.393       .  A
C85          H89   1.085       .  S
C86          C87   1.383   1_556  A
C86         C975   1.400       .  S
C87          H90   1.088       .  S
C91          C92   1.423       .  A
C91          C96   1.432       .  A
C91         C354   1.532       .  S
C92          C93   1.412       .  A
C92          H97   1.084       .  S
C93          C94   1.406   1_556  A
C93        C1000   1.476       .  S
C94          C95   1.416       .  A
C94          H98   1.084       .  S
C95          C96   1.434   1_554  A
C95         C822   1.525       .  S
C96          H99   1.083       .  S
C100        C101   1.397       .  A
C100        C105   1.384       .  A
C100        C972   1.405       .  S
C101        C102   1.396       .  A
C101        H106   1.085       .  S
C102        C103   1.389   1_556  A
C102       C1002   1.414       .  S
C103        C104   1.389       .  A
C103        H107   1.086       .  S
C104        C105   1.382   1_554  A
C104        C970   1.396       .  S
C105        H108   1.088       .  S
C109        C110   1.419       .  A
C109        C114   1.433       .  A
C109        C608   1.528       .  S
C110        C111   1.408       .  A
C110        H115   1.084       .  S
C111        C112   1.407   1_565  A
C111        C992   1.473       .  S
C112        C113   1.419       .  A
C112        H116   1.084       .  S
C113        C114   1.433   1_545  A
C113        C771   1.528       .  S
C114        H117   1.083       .  S
C118        C119   1.391       .  A
C118        C123   1.384   1_545  A
C118        C965   1.398       .  S
C119        C120   1.390   1_545  A
C119        H124   1.086       .  S
C120        C121   1.393       .  A
C120        C978   1.412       .  S
C121        C122   1.393       .  A
C121        H125   1.085       .  S
C122        C123   1.384       .  A
C122        C967   1.401       .  S
C123        H126   1.088       .  S
C127        C128   1.418       .  A
C127        C132   1.434   1_545  A
C127        C825   1.527       .  S
C128        C129   1.407   1_545  A
C128        H133   1.084       .  S
C129        C130   1.408       .  A
C129        C983   1.473       .  S
C130        C131   1.420       .  A
C130        H134   1.084       .  S
C131        C132   1.432       .  A
C131        C248   1.530       .  S
C132        H135   1.083       .  S
C136        C137   1.394       .  A
C136        C141   1.385       .  A
C136        C963   1.403       .  S
C137        C138   1.393       .  A
C137        H142   1.085       .  S
C138        C139   1.389   1_565  A
C138        C985   1.412       .  S
C139        C140   1.389       .  A
C139        H143   1.086       .  S
C140        C141   1.383   1_545  A
C140        C962   1.397       .  S
C141        H144   1.088       .  S
C145        C146   1.423       .  A
C145        C150   1.434       .  A
C145        C803   1.535       .  S
C146        C147   1.412       .  A
C146        H151   1.083       .  S
C147        C148   1.407   1_655  A
C147        C960   1.478       .  S
C148        C149   1.418       .  A
C148        H152   1.084       .  S
C149        C150   1.434   1_455  A
C149        C320   1.529       .  S
C150        H153   1.082       .  S
C154        C155   1.385       .  A
C154        C159   1.393       .  A
C154        C957   1.401       .  S
C155        C156   1.384   1_655  A
C155        H160   1.088   1_655  S
C156        C157   1.392       .  A
C156        C956   1.401       .  S
C157        C158   1.392   1_455  A
C157        H161   1.085       .  S
C158        C159   1.392       .  A
C158        C953   1.413       .  S
C159        H162   1.085       .  S
C163        C164   1.422       .  A
C163        C168   1.435   1_455  A
C163        C443   1.534       .  S
C164        C165   1.412   1_455  A
C164        H169   1.083       .  S
C165        C166   1.407       .  A
C165        C959   1.478       .  S
C166        C167   1.418       .  A
C166        H170   1.084       .  S
C167        C168   1.434       .  A
C167        C642   1.530       .  S
C168        H171   1.083       .  S
C172        C173   1.384   1_455  A
C172        C177   1.390       .  A
C172        C949   1.398       .  S
C173        C174   1.384       .  A
C173        H178   1.088       .  S
C174        C175   1.396       .  A
C174        C951   1.406       .  S
C175        C176   1.395       .  A
C175        H179   1.085       .  S
C176        C177   1.390   1_655  A
C176        C947   1.414       .  S
C177        H180   1.086       .  S
C181        C182   1.433   1_455  A
C181        C186   1.424       .  A
C181        C282   1.537       .  S
C182        C183   1.436       .  A
C182        H187   1.082       .  S
C183        C184   1.417       .  A
C183        C501   1.528       .  S
C184        C185   1.407       .  A
C184        H188   1.084       .  S
C185        C186   1.413   1_655  A
C185        C945   1.479       .  S
C186        H189   1.083       .  S
C190        C191   1.397       .  A
C190        C195   1.386   1_455  A
C190        C943   1.407       .  S
C191        C192   1.395   1_455  A
C191        H196   1.085       .  S
C192        C193   1.389       .  A
C192        C948   1.414   1_655  S
C193        C194   1.388       .  A
C193        H197   1.086       .  S
C194        C195   1.384       .  A
C194        C941   1.397       .  S
C195        H198   1.088       .  S
C199        C200   1.423       .  A
C199        C204   1.434       .  A
C199        C714   1.536       .  S
C200        C201   1.412       .  A
C200        H205   1.083       .  S
C201        C202   1.407   1_655  A
C201        C946   1.479       .  S
C202        C203   1.417       .  A
C202        H206   1.084       .  S
C203        C204   1.435   1_455  A
C203        C857   1.529       .  S
C204        H207   1.083       .  S
C208        C209   1.392       .  A
C208        C213   1.384   1_455  A
C208        C937   1.402       .  S
C209        C210   1.392   1_455  A
C209        H214   1.085       .  S
C210        C211   1.393       .  A
C210        C954   1.414       .  S
C211        C212   1.394       .  A
C211        H215   1.085       .  S
C212        C213   1.385       .  A
C212        C940   1.403       .  S
C213        H216   1.088       .  S
C217        C218   1.431       .  A
C217        C222   1.419       .  A
C217        C284   1.523       .  S
C218        C219   1.428       .  A
C218        H223   1.083       .  S
C219        C220   1.421       .  A
C219        C859   1.526       .  S
C220        C221   1.409       .  A
C220        H224   1.084       .  S
C221        C222   1.409       .  A
C221        C935   1.477       .  S
C222        H225   1.084       .  S
C226        C227   1.396       .  A
C226        C231   1.384       .  A
C226        C933   1.406       .  S
C227        C228   1.395       .  A
C227        H232   1.085       .  S
C228        C229   1.390       .  A
C228        C930   1.414       .  S
C229        C230   1.391       .  A
C229        H233   1.086       .  S
C230        C231   1.383       .  A
C230        C931   1.398       .  S
C231        H234   1.088       .  S
O235       Zr271   2.470       .  S
O235        C246   1.299       .  A
O236       Zr270   2.424       .  S
O236        C247   1.289       .  A
O237       Zr243   2.475       .  S
O237        C248   1.300       .  A
O238       Zr243   2.440       .  S
O238        C249   1.292       .  A
O239       Zr273   2.375       .  S
O239        C249   1.279       .  A
O240       Zr272   2.509       .  S
O240        C248   1.304       .  A
O241       Zr243   2.379       .  S
O241        C247   1.281       .  A
O242       Zr243   2.502       .  S
O242        C246   1.303       .  A
Zr243       O244   2.371       .  S
Zr243       O245   2.335       .  S
Zr243       O253   2.308       .  S
Zr243       O251   2.353       .  S
O244       Zr270   2.323       .  S
O244       Zr273   2.331       .  S
O245       Zr271   2.333       .  S
O245       Zr272   2.334       .  S
C247        C925   1.390       .  S
C249       C1003   1.402       .  S
H250        O251   0.964       .  S
O251       Zr270   2.388       .  S
O251       Zr272   2.319       .  S
H252        O253   0.963       .  S
O253       Zr271   2.354       .  S
O253       Zr273   2.388       .  S
O254       Zr270   2.498       .  S
O254        C277   1.304       .  A
O255       Zr271   2.434       .  S
O255        C278   1.291       .  A
O256       Zr272   2.429       .  S
O256        C279   1.290       .  A
O257       Zr273   2.490       .  S
O257        C280   1.303       .  A
O258       Zr273   2.428       .  S
O258        C281   1.290       .  A
O259       Zr272   2.476       .  S
O259        C282   1.300       .  A
O260       Zr274   2.417       .  S
O260        C283   1.288       .  A
O261       Zr274   2.485       .  S
O261        C284   1.301       .  A
O262       Zr272   2.392       .  S
O262        C283   1.283       .  A
O263       Zr273   2.483       .  S
O263        C284   1.299       .  A
O264       Zr270   2.378       .  S
O264        C279   1.280       .  A
O265       Zr271   2.525       .  S
O265        C282   1.307       .  A
O266       Zr271   2.389       .  S
O266        C281   1.283       .  A
O267       Zr270   2.469       .  S
O267        C280   1.296       .  A
O268       Zr274   2.491       .  S
O268        C277   1.300       .  A
O269       Zr274   2.388       .  S
O269        C278   1.282       .  A
Zr270       O276   2.330       .  S
Zr270       O288   2.329       .  S
Zr271       O275   2.374       .  S
Zr271       O286   2.310       .  S
Zr272       O276   2.374       .  S
Zr272       O286   2.354       .  S
Zr273       O275   2.317       .  S
Zr273       O288   2.331       .  S
Zr274       O275   2.331       .  S
Zr274       O276   2.322       .  S
Zr274       O288   2.328       .  S
Zr274       O286   2.393       .  S
C277        C361   1.533       .  S
C278        C944   1.404       .  S
C279        C964   1.399       .  S
C280        C471   1.519       .  S
C281        C932   1.394       .  S
C283        C928   1.392       .  S
H285        O286   0.963       .  S
H287        O288   0.968       .  S
C289        C290   1.431       .  A
C289        C294   1.421       .  A
C289        C853   1.528       .  S
C290        C291   1.432       .  A
C290        H295   1.083       .  S
C291        C292   1.416       .  A
C291        C352   1.524       .  S
C292        C293   1.405       .  A
C292        H296   1.084       .  S
C293        C294   1.410       .  A
C293        C923   1.472       .  S
C294        H297   1.084       .  S
C298        C299   1.384       .  A
C298        C303   1.397       .  A
C298        C921   1.407       .  S
C299        C300   1.384       .  A
C299        H304   1.088       .  S
C300        C301   1.390       .  A
C300        C919   1.399       .  S
C301        C302   1.390       .  A
C301        H305   1.086       .  S
C302        C303   1.395       .  A
C302        C917   1.415       .  S
C303        H306   1.085       .  S
O307       Zr343   2.471       .  S
O307        C318   1.299       .  A
O308       Zr342   2.429       .  S
O308        C319   1.290       .  A
O309       Zr315   2.489       .  S
O309        C320   1.303       .  A
O310       Zr315   2.432       .  S
O310        C321   1.290       .  A
O311       Zr345   2.392       .  S
O311        C321   1.283       .  A
O312       Zr344   2.493       .  S
O312        C320   1.300       .  A
O313       Zr315   2.387       .  S
O313        C319   1.282       .  A
O314       Zr315   2.509       .  S
O314        C318   1.304       .  A
Zr315       O316   2.376       .  S
Zr315       O317   2.332       .  S
Zr315       O325   2.317       .  S
Zr315       O323   2.347       .  S
O316       Zr342   2.318       .  S
O316       Zr345   2.337       .  S
O317       Zr343   2.335       .  S
O317       Zr344   2.331       .  S
C319        C920   1.395       .  S
C321        C980   1.403       .  S
H322        O323   0.963       .  S
O323       Zr342   2.393       .  S
O323       Zr344   2.315       .  S
H324        O325   0.963       .  S
O325       Zr343   2.353       .  S
O325       Zr345   2.394       .  S
O326       Zr342   2.500       .  S
O326        C349   1.305       .  A
O327       Zr343   2.436       .  S
O327        C350   1.291       .  A
O328       Zr344   2.427       .  S
O328        C351   1.289       .  A
O329       Zr345   2.488       .  S
O329        C352   1.303       .  A
O330       Zr345   2.432       .  S
O330        C353   1.291       .  A
O331       Zr344   2.478       .  S
O331        C354   1.300       .  A
O332       Zr346   2.415       .  S
O332        C355   1.287       .  A
O333       Zr346   2.466       .  S
O333        C356   1.298       .  A
O334       Zr344   2.380       .  S
O334        C355   1.281       .  A
O335       Zr345   2.510       .  S
O335        C356   1.304       .  A
O336       Zr342   2.377       .  S
O336        C351   1.280       .  A
O337       Zr343   2.512       .  S
O337        C354   1.305       .  A
O338       Zr343   2.393       .  S
O338        C353   1.283       .  A
O339       Zr342   2.484       .  S
O339        C352   1.299       .  A
O340       Zr346   2.480       .  S
O340        C349   1.297       .  A
O341       Zr346   2.378       .  S
O341        C350   1.280       .  A
Zr342       O348   2.331       .  S
Zr342       O360   2.331       .  S
Zr343       O347   2.370       .  S
Zr343       O358   2.321       .  S
Zr344       O348   2.370       .  S
Zr344       O358   2.349       .  S
Zr345       O347   2.318       .  S
Zr345       O360   2.333       .  S
Zr346       O347   2.333       .  S
Zr346       O348   2.311       .  S
Zr346       O360   2.330       .  S
Zr346       O358   2.385       .  S
C349        C383   1.529       .  S
C350        C971   1.401       .  S
C351        C955   1.397       .  S
C353        C913   1.398       .  S
C355        C916   1.390       .  S
C356        C721   1.527       .  S
H357        O358   0.964       .  S
H359        O360   0.969       .  S
C361        C362   1.437       .  A
C361        C366   1.420       .  A
C362        C363   1.435       .  A
C362        H367   1.082       .  S
C363        C364   1.417       .  A
C363        C439   1.530       .  S
C364        C365   1.405       .  A
C364        H368   1.084       .  S
C365        C366   1.410       .  A
C365        C912   1.473       .  S
C366        H369   1.084       .  S
C370        C371   1.384       .  A
C370        C375   1.397       .  A
C370        C909   1.406       .  S
C371        C372   1.383       .  A
C371        H376   1.088       .  S
C372        C373   1.390       .  A
C372        C927   1.396       .  S
C373        C374   1.389       .  A
C373        H377   1.086       .  S
C374        C375   1.396       .  A
C374        C918   1.415       .  S
C375        H378   1.085       .  S
C379        C380   1.421       .  A
C379        C384   1.433       .  A
C379        C445   1.535       .  S
C380        C381   1.410       .  A
C380        H385   1.084       .  S
C381        C382   1.409       .  A
C381        C936   1.477       .  S
C382        C383   1.418       .  A
C382        H386   1.084       .  S
C383        C384   1.436       .  A
C384        H387   1.083       .  S
C388        C389   1.382       .  A
C388        C393   1.390       .  A
C388        C915   1.397       .  S
C389        C390   1.385       .  A
C389        H394   1.088       .  S
C390        C391   1.395       .  A
C390        C908   1.403       .  S
C391        C392   1.394       .  A
C391        H395   1.085       .  S
C392        C393   1.390       .  A
C392        C905   1.414       .  S
C393        H396   1.086       .  S
O397       Zr433   2.485       .  S
O397        C408   1.302       .  A
O398       Zr432   2.434       .  S
O398        C409   1.291       .  A
O399       Zr405   2.422       .  S
O399        C410   1.289       .  A
O400       Zr405   2.484       .  S
O400        C411   1.302       .  A
O401       Zr435   2.481       .  S
O401        C411   1.298       .  A
O402       Zr434   2.393       .  S
O402        C410   1.283       .  A
O403       Zr405   2.377       .  S
O403        C409   1.280       .  A
O404       Zr405   2.492       .  S
O404        C408   1.301       .  A
Zr405       O406   2.334       .  S
Zr405       O407   2.311       .  S
Zr405       O415   2.329       .  S
Zr405       O413   2.391       .  S
O406       Zr432   2.373       .  S
O406       Zr435   2.316       .  S
O407       Zr433   2.334       .  S
O407       Zr434   2.374       .  S
C409        C904   1.399       .  S
C410       C1006   1.394       .  S
H412        O413   0.963       .  S
O413       Zr432   2.310       .  S
O413       Zr434   2.349       .  S
H414        O415   0.968       .  S
O415       Zr433   2.331       .  S
O415       Zr435   2.329       .  S
O416       Zr432   2.484       .  S
O416        C439   1.302       .  A
O417       Zr433   2.425       .  S
O417        C440   1.290       .  A
O418       Zr434   2.478       .  S
O418        C441   1.300       .  A
O419       Zr435   2.430       .  S
O419        C442   1.290       .  A
O420       Zr435   2.491       .  S
O420        C443   1.303       .  A
O421       Zr434   2.431       .  S
O421        C444   1.291       .  A
O422       Zr436   2.480       .  S
O422        C445   1.301       .  A
O423       Zr436   2.437       .  S
O423        C446   1.292       .  A
O424       Zr434   2.518       .  S
O424        C445   1.306       .  A
O425       Zr435   2.374       .  S
O425        C446   1.279       .  A
O426       Zr432   2.497       .  S
O426        C441   1.301       .  A
O427       Zr433   2.391       .  S
O427        C444   1.282       .  A
O428       Zr433   2.501       .  S
O428        C443   1.302       .  A
O429       Zr432   2.375       .  S
O429        C442   1.280       .  A
O430       Zr436   2.502       .  S
O430        C439   1.302       .  A
O431       Zr436   2.392       .  S
O431        C440   1.283       .  A
Zr432       O438   2.333       .  S
Zr432       O450   2.345       .  S
Zr433       O437   2.322       .  S
Zr433       O448   2.396       .  S
Zr434       O438   2.334       .  S
Zr434       O448   2.318       .  S
Zr435       O437   2.339       .  S
Zr435       O450   2.385       .  S
Zr436       O437   2.376       .  S
Zr436       O438   2.338       .  S
Zr436       O450   2.320       .  S
Zr436       O448   2.354       .  S
C440        C950   1.396       .  S
C441        C561   1.524       .  S
C442        C982   1.393       .  S
C444        C907   1.402       .  S
C446        C910   1.401       .  S
H447        O448   0.963       .  S
H449        O450   0.963       .  S
C451        C452   1.434       .  A
C451        C456   1.420       .  A
C451        C716   1.533       .  S
C452        C453   1.435       .  A
C452        H457   1.083       .  S
C453        C454   1.419       .  A
C453        C529   1.530       .  S
C454        C455   1.409       .  A
C454        H458   1.084       .  S
C455        C456   1.410       .  A
C455        C902   1.477       .  S
C456        H459   1.084       .  S
C460        C461   1.394       .  A
C460        C465   1.383       .  A
C460        C897   1.402       .  S
C461        C462   1.393       .  A
C461        H466   1.085       .  S
C462        C463   1.390       .  A
C462        C929   1.413       .  S
C463        C464   1.391       .  A
C463        H467   1.086       .  S
C464        C465   1.384       .  A
C464        C899   1.397       .  S
C465        H468   1.088       .  S
C469        C470   1.428       .  A
C469        C474   1.423       .  A
C469        C535   1.529       .  S
C470        C471   1.432       .  A
C470        H475   1.083       .  S
C471        C472   1.415       .  A
C472        C473   1.404       .  A
C472        H476   1.084       .  S
C473        C474   1.410       .  A
C473        C895   1.473       .  S
C474        H477   1.084       .  S
C478        C479   1.385       .  A
C478        C483   1.397       .  A
C478        C893   1.405       .  S
C479        C480   1.383       .  A
C479        H484   1.088       .  S
C480        C481   1.388       .  A
C480        C926   1.396       .  S
C481        C482   1.389       .  A
C481        H485   1.086       .  S
C482        C483   1.395       .  A
C482        C891   1.412       .  S
C483        H486   1.085       .  S
O487       Zr523   2.476       .  S
O487        C498   1.300       .  A
O488       Zr522   2.433       .  S
O488        C499   1.291       .  A
O489       Zr495   2.427       .  S
O489        C500   1.290       .  A
O490       Zr495   2.497       .  S
O490        C501   1.304       .  A
O491       Zr525   2.482       .  S
O491        C501   1.298       .  A
O492       Zr524   2.397       .  S
O492        C500   1.284       .  A
O493       Zr495   2.382       .  S
O493        C499   1.281       .  A
O494       Zr495   2.498       .  S
O494        C498   1.302       .  A
Zr495       O496   2.332       .  S
Zr495       O497   2.316       .  S
Zr495       O505   2.332       .  S
Zr495       O503   2.397       .  S
O496       Zr522   2.374       .  S
O496       Zr525   2.313       .  S
O497       Zr523   2.336       .  S
O497       Zr524   2.374       .  S
C499        C889   1.400       .  S
C500        C990   1.397       .  S
H502        O503   0.963       .  S
O503       Zr522   2.319       .  S
O503       Zr524   2.353       .  S
H504        O505   0.968       .  S
O505       Zr523   2.334       .  S
O505       Zr525   2.330       .  S
O506       Zr522   2.494       .  S
O506        C529   1.303       .  A
O507       Zr523   2.430       .  S
O507        C530   1.290       .  A
O508       Zr524   2.481       .  S
O508        C531   1.301       .  A
O509       Zr525   2.421       .  S
O509        C532   1.288       .  A
O510       Zr525   2.484       .  S
O510        C533   1.301       .  A
O511       Zr524   2.437       .  S
O511        C534   1.291       .  A
O512       Zr526   2.462       .  S
O512        C535   1.297       .  A
O513       Zr526   2.421       .  S
O513        C536   1.288       .  A
O514       Zr524   2.521       .  S
O514        C535   1.307       .  A
O515       Zr525   2.377       .  S
O515        C536   1.280       .  A
O516       Zr522   2.495       .  S
O516        C531   1.301       .  A
O517       Zr523   2.388       .  S
O517        C534   1.282       .  A
O518       Zr523   2.501       .  S
O518        C533   1.302       .  A
O519       Zr522   2.381       .  S
O519        C532   1.281       .  A
O520       Zr526   2.491       .  S
O520        C529   1.300       .  A
O521       Zr526   2.383       .  S
O521        C530   1.281       .  A
Zr522       O528   2.331       .  S
Zr522       O540   2.345       .  S
Zr523       O527   2.317       .  S
Zr523       O538   2.389       .  S
Zr524       O528   2.334       .  S
Zr524       O538   2.319       .  S
Zr525       O527   2.336       .  S
Zr525       O540   2.387       .  S
Zr526       O527   2.371       .  S
Zr526       O528   2.332       .  S
Zr526       O540   2.314       .  S
Zr526       O538   2.349       .  S
C530        C973   1.395       .  S
C531        C545   1.525       .  S
C532        C942   1.391       .  S
C534        C894   1.404       .  S
C536        C898   1.395       .  S
H537        O538   0.963       .  S
H539        O540   0.964       .  S
C541        C542   1.420       .  A
C541        C546   1.432       .  A
C541        C637   1.527       .  S
C542        C543   1.410       .  A
C542        H547   1.084       .  S
C543        C544   1.406       .  A
C543        C911   1.473       .  S
C544        C545   1.417       .  A
C544        H548   1.084       .  S
C545        C546   1.431       .  A
C546        H549   1.083       .  S
C550        C551   1.383       .  A
C550        C555   1.393       .  A
C550        C888   1.403       .  S
C551        C552   1.384       .  A
C551        H556   1.088       .  S
C552        C553   1.393       .  A
C552        C890   1.403       .  S
C553        C554   1.393       .  A
C553        H557   1.085       .  S
C554        C555   1.392       .  A
C554        C885   1.415       .  S
C555        H558   1.085       .  S
C559        C560   1.432       .  A
C559        C564   1.421       .  A
C559        C640   1.528       .  S
C560        C561   1.430       .  A
C560        H565   1.083       .  S
C561        C562   1.417       .  A
C562        C563   1.406       .  A
C562        H566   1.084       .  S
C563        C564   1.410       .  A
C563        C883   1.474       .  S
C564        H567   1.084       .  S
C568        C569   1.395       .  A
C568        C573   1.384       .  A
C568        C903   1.404       .  S
C569        C570   1.394       .  A
C569        H574   1.085       .  S
C570        C571   1.388       .  A
C570        C892   1.412       .  S
C571        C572   1.389       .  A
C571        H575   1.086       .  S
C572        C573   1.384       .  A
C572        C882   1.396       .  S
C573        H576   1.088       .  S
C577        C578   1.420       .  A
C577        C582   1.429       .  A
C577        C805   1.524       .  S
C578        C579   1.409       .  A
C578        H583   1.084       .  S
C579        C580   1.408       .  A
C579        C901   1.477       .  S
C580        C581   1.419       .  A
C580        H584   1.084       .  S
C581        C582   1.429       .  A
C581        C644   1.524       .  S
C582        H585   1.083       .  S
C586        C587   1.392       .  A
C586        C591   1.383       .  A
C586        C880   1.401       .  S
C587        C588   1.392       .  A
C587        H592   1.085       .  S
C588        C589   1.394       .  A
C588        C906   1.414       .  S
C589        C590   1.395       .  A
C589        H593   1.085       .  S
C590        C591   1.384       .  A
C590        C877   1.403       .  S
C591        H594   1.088       .  S
O595       Zr631   2.487       .  S
O595        C606   1.302       .  A
O596       Zr630   2.417       .  S
O596        C607   1.288       .  A
O597       Zr603   2.484       .  S
O597        C608   1.301       .  A
O598       Zr603   2.426       .  S
O598        C609   1.289       .  A
O599       Zr633   2.385       .  S
O599        C609   1.281       .  A
O600       Zr632   2.497       .  S
O600        C608   1.301       .  A
O601       Zr603   2.391       .  S
O601        C607   1.283       .  A
O602       Zr603   2.493       .  S
O602        C606   1.301       .  A
Zr603       O604   2.373       .  S
Zr603       O605   2.335       .  S
Zr603       O613   2.323       .  S
Zr603       O611   2.343       .  S
O604       Zr630   2.313       .  S
O604       Zr633   2.339       .  S
O605       Zr631   2.336       .  S
O605       Zr632   2.331       .  S
C607        C881   1.393       .  S
C609        C976   1.397       .  S
H610        O611   0.963       .  S
O611       Zr630   2.392       .  S
O611       Zr632   2.319       .  S
H612        O613   0.963       .  S
O613       Zr631   2.349       .  S
O613       Zr633   2.389       .  S
O614       Zr630   2.480       .  S
O614        C637   1.300       .  A
O615       Zr631   2.439       .  S
O615        C638   1.292       .  A
O616       Zr632   2.428       .  S
O616        C639   1.290       .  A
O617       Zr633   2.483       .  S
O617        C640   1.301       .  A
O618       Zr633   2.434       .  S
O618        C641   1.291       .  A
O619       Zr632   2.487       .  S
O619        C642   1.302       .  A
O620       Zr634   2.428       .  S
O620        C643   1.290       .  A
O621       Zr634   2.474       .  S
O621        C644   1.300       .  A
O622       Zr632   2.383       .  S
O622        C643   1.281       .  A
O623       Zr633   2.496       .  S
O623        C644   1.301       .  A
O624       Zr630   2.382       .  S
O624        C639   1.281       .  A
O625       Zr631   2.499       .  S
O625        C642   1.302       .  A
O626       Zr631   2.385       .  S
O626        C641   1.282       .  A
O627       Zr630   2.497       .  S
O627        C640   1.302       .  A
O628       Zr634   2.495       .  S
O628        C637   1.301       .  A
O629       Zr634   2.377       .  S
O629        C638   1.280       .  A
Zr630       O636   2.334       .  S
Zr630       O648   2.327       .  S
Zr631       O635   2.373       .  S
Zr631       O646   2.322       .  S
Zr632       O636   2.371       .  S
Zr632       O646   2.344       .  S
Zr633       O635   2.317       .  S
Zr633       O648   2.335       .  S
Zr634       O635   2.340       .  S
Zr634       O636   2.306       .  S
Zr634       O648   2.330       .  S
Zr634       O646   2.388       .  S
C638        C952   1.401       .  S
C639        C968   1.398       .  S
C641        C879   1.398       .  S
C643        C887   1.396       .  S
H645        O646   0.964       .  S
H647        O648   0.968       .  S
C649        C650   1.421       .  A
C649        C654   1.430       .  A
C649        C855   1.529       .  S
C650        C651   1.411       .  A
C650        H655   1.084       .  S
C651        C652   1.406       .  A
C651        C896   1.473       .  S
C652        C653   1.416       .  A
C652        H656   1.084       .  S
C653        C654   1.432       .  A
C653        C712   1.523       .  S
C654        H657   1.083       .  S
C658        C659   1.384       .  A
C658        C663   1.391       .  A
C658        C875   1.400       .  S
C659        C660   1.385       .  A
C659        H664   1.088       .  S
C660        C661   1.393       .  A
C660        C873   1.401       .  S
C661        C662   1.391       .  A
C661        H665   1.085       .  S
C662        C663   1.391       .  A
C662        C872   1.412       .  S
C663        H666   1.086       .  S
O667       Zr703   2.479       .  S
O667        C678   1.300       .  A
O668       Zr702   2.429       .  S
O668        C679   1.290       .  A
O669       Zr675   2.477       .  S
O669        C680   1.300       .  A
O670       Zr675   2.427       .  S
O670        C681   1.289       .  A
O671       Zr705   2.390       .  S
O671        C681   1.282       .  A
O672       Zr704   2.493       .  S
O672        C680   1.301       .  A
O673       Zr675   2.381       .  S
O673        C679   1.281       .  A
O674       Zr675   2.503       .  S
O674        C678   1.303       .  A
Zr675       O676   2.370       .  S
Zr675       O677   2.329       .  S
Zr675       O685   2.312       .  S
Zr675       O683   2.346       .  S
O676       Zr702   2.308       .  S
O676       Zr705   2.332       .  S
O677       Zr703   2.333       .  S
O677       Zr704   2.331       .  S
C679        C876   1.394       .  S
C681        C995   1.400       .  S
H682        O683   0.964       .  S
O683       Zr702   2.389       .  S
O683       Zr704   2.318       .  S
H684        O685   0.963       .  S
O685       Zr703   2.353       .  S
O685       Zr705   2.396       .  S
O686       Zr702   2.490       .  S
O686        C709   1.303       .  A
O687       Zr703   2.430       .  S
O687        C710   1.290       .  A
O688       Zr704   2.436       .  S
O688        C711   1.291       .  A
O689       Zr705   2.483       .  S
O689        C712   1.302       .  A
O690       Zr705   2.426       .  S
O690        C713   1.290       .  A
O691       Zr704   2.486       .  S
O691        C714   1.302       .  A
O692       Zr706   2.431       .  S
O692        C715   1.291       .  A
O693       Zr706   2.485       .  S
O693        C716   1.302       .  A
O694       Zr704   2.379       .  S
O694        C715   1.280       .  A
O695       Zr705   2.507       .  S
O695        C716   1.303       .  A
O696       Zr702   2.372       .  S
O696        C711   1.279       .  A
O697       Zr703   2.512       .  S
O697        C714   1.305       .  A
O698       Zr703   2.396       .  S
O698        C713   1.284       .  A
O699       Zr702   2.486       .  S
O699        C712   1.299       .  A
O700       Zr706   2.490       .  S
O700        C709   1.299       .  A
O701       Zr706   2.388       .  S
O701        C710   1.282       .  A
Zr702       O708   2.333       .  S
Zr702       O720   2.332       .  S
Zr703       O707   2.374       .  S
Zr703       O718   2.326       .  S
Zr704       O708   2.370       .  S
Zr704       O718   2.352       .  S
Zr705       O707   2.317       .  S
Zr705       O720   2.335       .  S
Zr706       O707   2.336       .  S
Zr706       O708   2.316       .  S
Zr706       O720   2.336       .  S
Zr706       O718   2.392       .  S
C709        C741   1.529       .  S
C710        C939   1.401       .  S
C711        C988   1.399       .  S
C713        C900   1.396       .  S
C715        C869   1.395       .  S
H717        O718   0.964       .  S
H719        O720   0.969       .  S
C721        C722   1.422       .  A
C721        C726   1.429       .  A
C722        C723   1.410       .  A
C722        H727   1.083       .  S
C723        C724   1.404       .  A
C723        C884   1.473       .  S
C724        C725   1.416       .  A
C724        H728   1.084       .  S
C725        C726   1.431       .  A
C725        C801   1.520       .  S
C726        H729   1.083       .  S
C730        C731   1.393       .  A
C730        C735   1.384       .  A
C730        C914   1.400       .  S
C731        C732   1.392       .  A
C731        H736   1.085       .  S
C732        C733   1.392       .  A
C732        C871   1.412       .  S
C733        C734   1.392       .  A
C733        H737   1.085       .  S
C734        C735   1.383       .  A
C734        C868   1.400       .  S
C735        H738   1.088       .  S
C739        C740   1.436       .  A
C739        C744   1.421       .  A
C739        C799   1.534       .  S
C740        C741   1.436       .  A
C740        H745   1.082       .  S
C741        C742   1.416       .  A
C742        C743   1.405       .  A
C742        H746   1.084       .  S
C743        C744   1.410       .  A
C743        C924   1.472       .  S
C744        H747   1.084       .  S
C748        C749   1.393       .  A
C748        C753   1.383       .  A
C748        C870   1.402       .  S
C749        C750   1.393       .  A
C749        H754   1.085       .  S
C750        C751   1.392       .  A
C750        C886   1.414       .  S
C751        C752   1.393       .  A
C751        H755   1.085       .  S
C752        C753   1.384       .  A
C752        C865   1.401       .  S
C753        H756   1.088       .  S
O757       Zr793   2.476       .  S
O757        C768   1.300       .  A
O758       Zr792   2.429       .  S
O758        C769   1.290       .  A
O759       Zr765   2.434       .  S
O759        C770   1.291       .  A
O760       Zr765   2.481       .  S
O760        C771   1.301       .  A
O761       Zr795   2.498       .  S
O761        C771   1.301       .  A
O762       Zr794   2.381       .  S
O762        C770   1.281       .  A
O763       Zr765   2.375       .  S
O763        C769   1.280       .  A
O764       Zr765   2.491       .  S
O764        C768   1.300       .  A
Zr765       O766   2.339       .  S
Zr765       O767   2.307       .  S
Zr765       O775   2.335       .  S
Zr765       O773   2.387       .  S
O766       Zr792   2.371       .  S
O766       Zr795   2.315       .  S
O767       Zr793   2.338       .  S
O767       Zr794   2.369       .  S
C769        C867   1.395       .  S
C770        C997   1.397       .  S
H772        O773   0.964       .  S
O773       Zr792   2.325       .  S
O773       Zr794   2.343       .  S
H774        O775   0.968       .  S
O775       Zr793   2.332       .  S
O775       Zr795   2.332       .  S
O776       Zr792   2.492       .  S
O776        C799   1.303       .  A
O777       Zr793   2.428       .  S
O777        C800   1.290       .  A
O778       Zr794   2.483       .  S
O778        C801   1.302       .  A
O779       Zr795   2.423       .  S
O779        C802   1.289       .  A
O780       Zr795   2.481       .  S
O780        C803   1.301       .  A
O781       Zr794   2.434       .  S
O781        C804   1.291       .  A
O782       Zr796   2.478       .  S
O782        C805   1.300       .  A
O783       Zr796   2.423       .  S
O783        C806   1.289       .  A
O784       Zr794   2.495       .  S
O784        C805   1.301       .  A
O785       Zr795   2.388       .  S
O785        C806   1.282       .  A
O786       Zr792   2.480       .  S
O786        C801   1.298       .  A
O787       Zr793   2.384       .  S
O787        C804   1.281       .  A
O788       Zr793   2.513       .  S
O788        C803   1.305       .  A
O789       Zr792   2.382       .  S
O789        C802   1.281       .  A
O790       Zr796   2.502       .  S
O790        C799   1.302       .  A
O791       Zr796   2.393       .  S
O791        C800   1.283       .  A
Zr792       O798   2.331       .  S
Zr792       O810   2.344       .  S
Zr793       O797   2.308       .  S
Zr793       O808   2.395       .  S
Zr794       O798   2.331       .  S
Zr794       O808   2.318       .  S
Zr795       O797   2.336       .  S
Zr795       O810   2.392       .  S
Zr796       O797   2.373       .  S
Zr796       O798   2.330       .  S
Zr796       O810   2.325       .  S
Zr796       O808   2.348       .  S
C800        C958   1.398       .  S
C802        C966   1.393       .  S
C804        C878   1.400       .  S
C806        C866   1.398       .  S
H807        O808   0.963       .  S
H809        O810   0.963       .  S
O811       Zr847   2.492       .  S
O811        C822   1.303       .  A
O812       Zr846   2.421       .  S
O812        C823   1.288       .  A
O813       Zr819   2.421       .  S
O813        C824   1.289       .  A
O814       Zr819   2.490       .  S
O814        C825   1.303       .  A
O815       Zr849   2.487       .  S
O815        C825   1.299       .  A
O816       Zr848   2.391       .  S
O816        C824   1.283       .  A
O817       Zr819   2.388       .  S
O817        C823   1.282       .  A
O818       Zr819   2.483       .  S
O818        C822   1.298       .  A
Zr819       O820   2.327       .  S
Zr819       O821   2.321       .  S
Zr819       O829   2.335       .  S
Zr819       O827   2.393       .  S
O820       Zr846   2.372       .  S
O820       Zr849   2.317       .  S
O821       Zr847   2.334       .  S
O821       Zr848   2.371       .  S
C823        C874   1.399       .  S
C824        C969   1.392       .  S
H826        O827   0.964       .  S
O827       Zr846   2.315       .  S
O827       Zr848   2.354       .  S
H828        O829   0.968       .  S
O829       Zr847   2.334       .  S
O829       Zr849   2.330       .  S
O830       Zr846   2.474       .  S
O830        C853   1.299       .  A
O831       Zr847   2.433       .  S
O831        C854   1.291       .  A
O832       Zr848   2.478       .  S
O832        C855   1.300       .  A
O833       Zr849   2.422       .  S
O833        C856   1.289       .  A
O834       Zr849   2.493       .  S
O834        C857   1.303       .  A
O835       Zr848   2.439       .  S
O835        C858   1.292       .  A
O836       Zr850   2.468       .  S
O836        C859   1.298       .  A
O837       Zr850   2.432       .  S
O837        C860   1.290       .  A
O838       Zr848   2.507       .  S
O838        C859   1.304       .  A
O839       Zr849   2.380       .  S
O839        C860   1.280       .  A
O840       Zr846   2.507       .  S
O840        C855   1.304       .  A
O841       Zr847   2.381       .  S
O841        C858   1.280       .  A
O842       Zr847   2.488       .  S
O842        C857   1.299       .  A
O843       Zr846   2.386       .  S
O843        C856   1.282       .  A
O844       Zr850   2.507       .  S
O844        C853   1.303       .  A
O845       Zr850   2.383       .  S
O845        C854   1.281       .  A
Zr846       O852   2.328       .  S
Zr846       O864   2.349       .  S
Zr847       O851   2.320       .  S
Zr847       O862   2.390       .  S
Zr848       O852   2.335       .  S
Zr848       O862   2.319       .  S
Zr849       O851   2.331       .  S
Zr849       O864   2.389       .  S
Zr850       O851   2.372       .  S
Zr850       O852   2.332       .  S
Zr850       O864   2.309       .  S
Zr850       O862   2.355       .  S
C854        C938   1.396       .  S
C856        C961   1.392       .  S
C858        C934   1.403       .  S
C860        C922   1.402       .  S
H861        O862   0.964       .  S
H863        O864   0.963       .  S
C865        C866   1.185       .  T
C867        C868   1.184       .  T
C869        C870   1.185       .  T
C871        C872   1.189   1_556  T
C873        C874   1.185       .  T
C875        C876   1.184       .  T
C877        C878   1.186       .  T
C879        C880   1.185       .  T
C881        C882   1.183       .  T
C883        C884   1.226       .  T
C885        C886   1.191   1_565  T
C887        C888   1.186       .  T
C889        C890   1.186       .  T
C891        C892   1.189   1_554  T
C893        C894   1.188       .  T
C895        C896   1.226       .  T
C897        C898   1.185       .  T
C899        C900   1.184       .  T
C901        C902   1.228       .  T
C903        C904   1.186       .  T
C905        C906   1.190   1_455  T
C907        C908   1.186       .  T
C909        C910   1.188       .  T
C911        C912   1.225       .  T
C913        C914   1.185       .  T
C915        C916   1.182       .  T
C917        C918   1.191   1_545  T
C919        C920   1.184       .  T
C921        C922   1.188       .  T
C923        C924   1.225       .  T
C925        C926   1.182       .  T
C927        C928   1.183       .  T
C929        C930   1.190   1_655  T
C931        C932   1.184       .  T
C933        C934   1.188       .  T
C935        C936   1.228       .  T
C937        C938   1.185       .  T
C939        C940   1.187       .  T
C941        C942   1.182       .  T
C943        C944   1.188       .  T
C945        C946   1.229   1_565  T
C947        C948   1.190   1_655  T
C949        C950   1.184       .  T
C951        C952   1.187       .  T
C953        C954   1.190       .  T
C955        C956   1.185       .  T
C957        C958   1.185       .  T
C959        C960   1.229   1_565  T
C961        C962   1.183       .  T
C963        C964   1.186       .  T
C965        C966   1.183       .  T
C967        C968   1.185       .  T
C969        C970   1.182       .  T
C971        C972   1.188       .  T
C973        C974   1.185       .  T
C975        C976   1.184       .  T
C977        C978   1.189       .  T
C979        C980   1.187       .  T
C981        C982   1.184       .  T
C983        C984   1.226   1_554  T
C985        C986   1.189       .  T
C987        C988   1.187       .  T
C989        C990   1.185       .  T
C991        C992   1.226   1_554  T
C993        C994   1.190       .  T
C995        C996   1.186       .  T
C997        C998   1.186       .  T
C999       C1000   1.227   1_655  T
C1001      C1002   1.191       .  T
C1003      C1004   1.188       .  T
C1005      C1006   1.184       .  T
C1007      C1008   1.227   1_455  T
