geometry optimzed in LAMMPS
_audit_creation_date              2020-11-30 
_audit_creation_method            'lammps2cif' 
_symmetry_space_group_name_H-M    'P1' 
_symmetry_Int_Tables_number       1 
_symmetry_cell_setting            triclinic 
loop_ 
_symmetry_equiv_pos_as_xyz 
  x,y,z 
_cell_length_a                    40.82561557 
_cell_length_b                    40.78125495045489 
_cell_length_c                    40.81872901612399 
_cell_angle_alpha                 90.00544897506923 
_cell_angle_beta                  90.01156932142102 
_cell_angle_gamma                 89.95497766044952 
loop_ 
_atom_site_label 
_atom_site_type_symbol 
_atom_site_fract_x 
_atom_site_fract_y 
_atom_site_fract_z 
_atom_site_charge 
C1          C  0.15065341  0.74723995  0.97097364     0.80000
N2          N  0.11862913  0.75588627  0.97192478    -0.78300
C3          C  0.10299505  0.75913101  0.00108287     0.82500
N4          N  0.11970846  0.75349821  0.02923236    -0.78200
C5          C  0.15173361  0.74485094  0.02854991     0.82600
N6          N  0.16699945  0.74179774  0.99931701    -0.80000
C7          C  0.33485666  0.60028667  0.03004255     0.80000
N8          N  0.33707035  0.56707299  0.02977812    -0.78300
C9          C  0.33711850  0.55000175  0.00117740     0.82500
N10         N  0.33491889  0.56671533  0.97230851    -0.78200
C11         C  0.33263604  0.60007592  0.97197966     0.82600
N12         N  0.33252492  0.61646315  0.00101555    -0.80000
C13         C  0.91498958  0.21591930  0.02959744     0.80000
N14         N  0.94716879  0.20814443  0.02928110    -0.78300
C15         C  0.96399394  0.20691745  0.00076385     0.82500
N16         N  0.94832696  0.21376866  0.97228377    -0.78200
C17         C  0.91602480  0.22167419  0.97227954     0.82600
N18         N  0.89957284  0.22263838  0.00104635    -0.80000
C19         C  0.72867104  0.35502192  0.97291336     0.80000
N20         N  0.73016692  0.33856282  0.00188821    -0.78300
C21         C  0.72991712  0.35491930  0.03099440     0.82500
N22         N  0.72822552  0.38829327  0.03073768    -0.78200
C23         C  0.72668663  0.40530699  0.00206252     0.82600
N24         N  0.72706102  0.38836142  0.97333633    -0.80000
C25         C  0.80791363  0.94869890  0.11814539     0.80000
N26         N  0.80692430  0.97748280  0.13456958    -0.78300
C27         C  0.81254041  0.00630364  0.11912432     0.82500
N28         N  0.81937522  0.00619054  0.08667791    -0.78200
C29         C  0.82066819  0.97763131  0.06972142     0.82600
N30         N  0.81477684  0.94892798  0.08561415    -0.80000
C31         C  0.65728287  0.00613590  0.30855974     0.80000
N32         N  0.67354308  0.97703204  0.30694336    -0.78300
C33         C  0.65707812  0.94803488  0.30653580     0.82500
N34         N  0.62376967  0.94843250  0.30733178    -0.78200
C35         C  0.60698752  0.97727910  0.30881261     0.82600
N36         N  0.62401317  0.00595114  0.30935626    -0.80000
C37         C  0.25645672  0.00821276  0.87914560     0.80000
N38         N  0.25882655  0.97925497  0.86327778    -0.78300
C39         C  0.25560546  0.95060987  0.87959247     0.82500
N40         N  0.25027705  0.95104588  0.91234422    -0.78200
C41         C  0.24778248  0.97994607  0.92861183     0.82600
N42         N  0.25098618  0.00838931  0.91182983    -0.80000
C43         C  0.41121261  0.95170708  0.69533404     0.80000
N44         N  0.39499437  0.98097519  0.69567129    -0.78300
C45         C  0.41172755  0.00992120  0.69473668     0.82500
N46         N  0.44493008  0.00920131  0.69359252    -0.78200
C47         C  0.46157481  0.98040791  0.69335584     0.82600
N48         N  0.44451738  0.95180901  0.69425174    -0.80000
C49         C  0.91432778  0.75392920  0.02843600     0.80000
N50         N  0.94650103  0.76174099  0.02859685    -0.78300
C51         C  0.96314381  0.76574910  0.00017771     0.82500
N52         N  0.94725779  0.76156706  0.97129016    -0.78200
C53         C  0.91495848  0.75385178  0.97072094     0.82600
N54         N  0.89870130  0.75006260  0.99942719    -0.80000
C55         C  0.72967103  0.59922439  0.02905485     0.80000
N56         N  0.72740268  0.56589710  0.02867910    -0.78300
C57         C  0.72821188  0.54887081  0.99990753     0.82500
N58         N  0.73146427  0.56578903  0.97125153    -0.78200
C59         C  0.73376946  0.59913695  0.97107639     0.82600
N60         N  0.73289581  0.61541306  0.00012168    -0.80000
C61         C  0.15324766  0.20328476  0.97304671     0.80000
N62         N  0.16963755  0.20538456  0.00182670    -0.78300
C63         C  0.15370406  0.20283082  0.03077562     0.82500
N64         N  0.12089207  0.19833041  0.03081857    -0.78200
C65         C  0.10400907  0.19618768  0.00233262     0.82600
N66         N  0.12032322  0.19877999  0.97346117    -0.80000
C67         C  0.32722145  0.35761909  0.97238356     0.80000
N68         N  0.33069233  0.39071299  0.97268187    -0.78300
C69         C  0.33314335  0.40739632  0.00136754     0.82500
N70         N  0.33176239  0.39046528  0.03009006    -0.78200
C71         C  0.32830161  0.35726126  0.03026183     0.82600
N72         N  0.32614816  0.34110775  0.00123152    -0.80000
C73         C  0.81683004  0.95018632  0.87887420     0.80000
N74         N  0.82271759  0.94983788  0.91153455    -0.78300
C75         C  0.82490534  0.97816773  0.92874444     0.82500
N76         N  0.82092583  0.00713516  0.91290390    -0.78200
C77         C  0.81500375  0.00784133  0.88025544     0.82600
N78         N  0.81280660  0.97931698  0.86344658    -0.80000
C79         C  0.65382757  0.00735340  0.70022285     0.80000
N80         N  0.62063294  0.00700092  0.69814109    -0.78300
C81         C  0.60384289  0.97837023  0.69579139     0.82500
N82         N  0.62071147  0.94969587  0.69578360    -0.78200
C83         C  0.65391746  0.94929047  0.69784653     0.82600
N84         N  0.67038689  0.97829350  0.69995437    -0.80000
C85         C  0.25802813  0.00879006  0.11822544     0.80000
N86         N  0.25213612  0.00848402  0.08558528    -0.78300
C87         C  0.24784413  0.97973513  0.06941297     0.82500
N88         N  0.24971085  0.95112433  0.08622054    -0.78200
C89         C  0.25563724  0.95099166  0.11886164     0.82600
N90         N  0.25977529  0.97992990  0.13460485    -0.80000
C91         C  0.41364072  0.95046759  0.29667867     0.80000
N92         N  0.44689981  0.94989986  0.29877219    -0.78300
C93         C  0.46444137  0.97809604  0.30144211     0.82500
N94         N  0.44822612  0.00722776  0.30186773    -0.78200
C95         C  0.41502920  0.00841823  0.29975369     0.82600
N96         N  0.39793266  0.97989538  0.29723700    -0.80000
C97         C  0.00555399  0.09818242  0.74087306     0.80000
N98         N  0.03458553  0.11400010  0.74336697    -0.78300
C99         C  0.06314016  0.09805382  0.73751163     0.82500
N100        N  0.06247280  0.06594101  0.72910253    -0.78200
C101        C  0.03363030  0.04979223  0.72636125     0.82600
N102        N  0.00530739  0.06607148  0.73239972    -0.80000
C103        C  0.00480923  0.27437701  0.62164557     0.80000
N104        N  0.00518454  0.27570751  0.58835504    -0.78300
C105        C  0.03392194  0.27716381  0.57153505     0.82500
N106        N  0.06263022  0.27726892  0.58854224    -0.78200
C107        C  0.06288003  0.27608042  0.62185994     0.82600
N108        N  0.03381791  0.27455565  0.63809176    -0.80000
C109        C  0.06337049  0.86227456  0.74398024     0.80000
N110        N  0.06257905  0.89457897  0.73613269    -0.78300
C111        C  0.03379319  0.90957737  0.72900604     0.82500
N112        N  0.00571569  0.89199103  0.72983786    -0.78200
C113        C  0.00604612  0.85972543  0.73759734     0.82600
N114        N  0.03496060  0.84501719  0.74467902    -0.80000
C115        C  0.00546388  0.67846755  0.62244230     0.80000
N116        N  0.03464782  0.67954685  0.63866733    -0.78300
C117        C  0.06357620  0.67792602  0.62206231     0.82500
N118        N  0.06301112  0.67507776  0.58886153    -0.78200
C119        C  0.03421204  0.67379749  0.57214482     0.82600
N120        N  0.00563441  0.67562421  0.58920341    -0.80000
C121        C  0.06221879  0.85824946  0.21710343     0.80000
N122        N  0.03324444  0.84267793  0.22109259    -0.78300
C123        C  0.00452272  0.85913026  0.21833235     0.82500
N124        N  0.00504589  0.89171190  0.21166902    -0.78200
C125        C  0.03392955  0.90765102  0.20749332     0.82600
N126        N  0.06237693  0.89074611  0.21045371    -0.80000
C127        C  0.06384409  0.67402259  0.37861490     0.80000
N128        N  0.06377510  0.67214715  0.41191526    -0.78300
C129        C  0.03516806  0.67144466  0.42904910     0.82500
N130        N  0.00630511  0.67280981  0.41232002    -0.78200
C131        C  0.00574545  0.67463794  0.37902772     0.82600
N132        N  0.03468858  0.67529053  0.36251542    -0.80000
C133        C  0.00721893  0.09611720  0.22650735     0.80000
N134        N  0.03595668  0.11194023  0.23171932    -0.78300
C135        C  0.06499042  0.09622307  0.22799515     0.82500
N136        N  0.06507840  0.06425042  0.21903073    -0.78200
C137        C  0.03661789  0.04803563  0.21365982     0.82600
N138        N  0.00778358  0.06412997  0.21754201    -0.80000
C139        C  0.06488432  0.27967881  0.37860740     0.80000
N140        N  0.03591391  0.27875980  0.36214842    -0.78300
C141        C  0.00687648  0.27850795  0.37845414     0.82500
N142        N  0.00714667  0.27905619  0.41177988    -0.78200
C143        C  0.03583316  0.27989357  0.42875334     0.82600
N144        N  0.06453029  0.28012110  0.41189037    -0.80000
C145        C  0.30265845  0.50879827  0.38085539     0.80000
N146        N  0.31084073  0.50849966  0.41302347    -0.78300
C147        C  0.31489591  0.47978181  0.42928316     0.82500
N148        N  0.31059339  0.45113797  0.41297942    -0.78200
C149        C  0.30261294  0.45100994  0.38073382     0.82600
N150        N  0.29863603  0.47994385  0.36492181    -0.80000
C151        C  0.15604026  0.44938953  0.20396467     0.80000
N152        N  0.17227855  0.47853976  0.20318167    -0.78300
C153        C  0.15575873  0.50746934  0.20073913     0.82500
N154        N  0.12246942  0.50688810  0.19911628    -0.78200
C155        C  0.10573677  0.47806615  0.19983448     0.82600
N156        N  0.12276390  0.44949562  0.20236870    -0.80000
O157        O  0.25278352  0.74058632  0.14850522    -0.86700
O158        O  0.21318882  0.69830788  0.32511093    -0.86900
O159        O  0.20982951  0.65721053  0.21802541    -0.88500
O160        O  0.18271872  0.75885956  0.23388464    -0.87300
O161        O  0.20811416  0.80544225  0.25237053    -0.86900
O162        O  0.25819310  0.62891623  0.22028264    -0.88200
O163        O  0.18431875  0.69903810  0.27705319    -0.86700
O164        O  0.20745109  0.72113684  0.17547458    -0.86300
Zr165      Zr  0.22158570  0.71431274  0.23278424     2.84300
O166        O  0.23579332  0.74555117  0.27877487    -1.08300
O167        O  0.26805979  0.69944406  0.20286827    -1.09000
C168        C  0.22261301  0.73123033  0.14964472     1.06400
C169        C  0.18645814  0.69506978  0.30842975     1.06400
C170        C  0.22692279  0.63054870  0.21558457     1.09300
C171        C  0.18304994  0.78954464  0.24142163     1.07100
H172        H  0.24227858  0.66336038  0.27376428     0.32700
O173        O  0.25434026  0.68238512  0.26662178    -1.29200
H174        H  0.23680573  0.77424543  0.20257707     0.32300
O175        O  0.25061848  0.76114072  0.21660767    -1.30900
O176        O  0.31420639  0.71792334  0.35074868    -0.86700
O177        O  0.35464211  0.76050027  0.17442516    -0.88200
O178        O  0.29717584  0.62973064  0.28225542    -0.86800
O179        O  0.24825231  0.80491073  0.31903433    -0.86800
O180        O  0.26758044  0.82980665  0.21734222    -0.86500
O181        O  0.31622042  0.65385065  0.18036113    -0.86300
O182        O  0.38418154  0.70025597  0.26484324    -0.86700
O183        O  0.35644767  0.80258228  0.27880860    -0.86200
O184        O  0.35785706  0.65379492  0.24695684    -0.87200
O185        O  0.30813542  0.83108635  0.27717521    -0.86400
O186        O  0.27866133  0.65714776  0.32779456    -0.86800
O187        O  0.31362639  0.70149828  0.15080275    -0.86500
O188        O  0.28679795  0.80322336  0.17157498    -0.86200
O189        O  0.25104745  0.75722125  0.34844478    -0.86600
O190        O  0.35966281  0.73739707  0.32414790    -0.86900
O191        O  0.38355669  0.75967970  0.22253322    -0.88200
Zr192      Zr  0.26952543  0.71380244  0.31206915     2.83100
Zr193      Zr  0.29750782  0.74623772  0.18710266     2.83500
Zr194      Zr  0.30093034  0.66745087  0.23672508     2.84100
Zr195      Zr  0.26523488  0.79200240  0.26276832     2.83400
Zr196      Zr  0.34538228  0.74499287  0.26648980     2.84200
O197        O  0.31220902  0.77730049  0.23300919    -1.08800
O198        O  0.31622572  0.69827887  0.28267427    -1.08300
C199        C  0.34444806  0.72700264  0.34992776     1.06400
C200        C  0.38157348  0.76308264  0.19105015     1.09000
C201        C  0.28856716  0.63122621  0.31261010     1.06600
C202        C  0.24548659  0.78829133  0.34593491     1.06900
C203        C  0.27577743  0.82874698  0.18687672     1.06500
C204        C  0.31846285  0.67025122  0.15332803     1.06100
C205        C  0.38329758  0.66965703  0.25698622     1.06500
C206        C  0.33953545  0.82936545  0.28081352     1.06000
H207        H  0.34959344  0.70670994  0.20862546     0.32700
O208        O  0.33049062  0.71381914  0.22057987    -1.29900
H209        H  0.30554880  0.77327225  0.31527823     0.32700
O210        O  0.29900172  0.76059036  0.29643869    -1.31300
C211        C  0.41651109  0.24214645  0.47342318     0.80000
N212        N  0.40041243  0.24140123  0.50242708    -0.78300
C213        C  0.41669971  0.24618129  0.53096842     0.82500
N214        N  0.44940042  0.25171101  0.53042179    -0.78200
C215        C  0.46578308  0.25280403  0.50156963     0.82600
N216        N  0.44917055  0.24791900  0.47325090    -0.80000
C217        C  0.23301997  0.10043318  0.47274450     0.80000
N218        N  0.23154665  0.06713268  0.47288837    -0.78300
C219        C  0.23094844  0.05004244  0.50147224     0.82500
N220        N  0.23202397  0.06678314  0.53027799    -0.78200
C221        C  0.23355141  0.10009601  0.53079294     0.82600
N222        N  0.23401871  0.11667255  0.50185553    -0.80000
O223        O  0.26975262  0.12891612  0.78050353    -0.86700
O224        O  0.31068511  0.30325087  0.82396806    -0.86900
O225        O  0.35501274  0.19718945  0.82725132    -0.88500
O226        O  0.25265720  0.21286566  0.85182019    -0.87300
O227        O  0.20683084  0.23243744  0.82566902    -0.86900
O228        O  0.38413239  0.20046156  0.77943345    -0.88200
O229        O  0.31130389  0.25476061  0.85231731    -0.86700
O230        O  0.28932411  0.15417095  0.82669282    -0.86300
Zr231      Zr  0.29784390  0.21146510  0.81370443     2.84300
O232        O  0.26712745  0.25792483  0.79910205    -1.08300
O233        O  0.31434150  0.18230442  0.76727160    -1.09000
C234        C  0.27825245  0.12915860  0.81088194     1.06400
C235        C  0.31362888  0.28627147  0.85054760     1.06400
C236        C  0.38205800  0.19556026  0.81063463     1.09300
C237        C  0.22221697  0.22127175  0.85102926     1.07100
H238        H  0.34861354  0.25284596  0.79506223     0.32700
O239        O  0.33014481  0.24588587  0.78206826    -1.29200
H240        H  0.23760271  0.18220565  0.79646291     0.32300
O241        O  0.25136369  0.19635962  0.78345439    -1.30900
O242        O  0.29991905  0.33016817  0.72112943    -0.86700
O243        O  0.25482025  0.15554108  0.67938666    -0.88200
O244        O  0.38451675  0.26276339  0.74286681    -0.86800
O245        O  0.20770211  0.29967324  0.78428811    -0.86800
O246        O  0.18334450  0.19768202  0.76226471    -0.86500
O247        O  0.35952373  0.15979091  0.71977403    -0.86300
O248        O  0.31655650  0.24538592  0.65214553    -0.86700
O249        O  0.21319967  0.26058557  0.67693886    -0.86200
O250        O  0.36239257  0.22723960  0.67909271    -0.87200
O251        O  0.18352884  0.25812959  0.72453226    -0.86400
O252        O  0.35650763  0.30712596  0.76299602    -0.86800
O253        O  0.31144581  0.13097601  0.72051965    -0.86500
O254        O  0.21079700  0.15334245  0.74125006    -0.86200
O255        O  0.25551176  0.32881571  0.78217646    -0.86600
O256        O  0.28134390  0.30428710  0.67488214    -0.86900
O257        O  0.25614582  0.20379509  0.65081084    -0.88200
Zr258      Zr  0.29939711  0.29171663  0.76646831     2.83100
Zr259      Zr  0.26802190  0.16811096  0.73644318     2.83500
Zr260      Zr  0.34701565  0.21681125  0.73559010     2.84100
Zr261      Zr  0.22114213  0.24298014  0.76853275     2.83400
Zr262      Zr  0.27055693  0.24739566  0.68939267     2.84200
O263        O  0.23744697  0.21405525  0.72161798    -1.08800
O264        O  0.31646406  0.26292438  0.72004854    -1.08300
C265        C  0.29261678  0.32950383  0.69036308     1.06400
C266        C  0.25236773  0.17235905  0.65262840     1.09000
C267        C  0.38299933  0.29242055  0.75396921     1.06600
C268        C  0.22433311  0.32663112  0.78684655     1.06900
C269        C  0.18465706  0.16811699  0.75112979     1.06500
C270        C  0.34264643  0.13304715  0.71630392     1.06100
C271        C  0.34713631  0.23747717  0.65333586     1.06500
C272        C  0.18601313  0.26237174  0.69321911     1.06000
H273        H  0.30876888  0.18947871  0.68553439     0.32700
O274        O  0.30138194  0.20137912  0.70455356    -1.29900
H275        H  0.24131778  0.29587405  0.72861169     0.32700
O276        O  0.25347858  0.27682604  0.73558756    -1.31300
C277        C  0.41426209  0.71201963  0.47219887     0.80000
N278        N  0.44648692  0.70390208  0.47203469    -0.78300
C279        C  0.46313844  0.69993699  0.50057531     0.82500
N280        N  0.44728157  0.70457448  0.52938656    -0.78200
C281        C  0.41512594  0.71282522  0.52991661     0.82600
N282        N  0.39883113  0.71643976  0.50122960    -0.80000
C283        C  0.23159957  0.85700406  0.52794317     0.80000
N284        N  0.23128938  0.89031575  0.52739050    -0.78300
C285        C  0.23000015  0.90718848  0.49871087     0.82500
N286        N  0.22904849  0.89020875  0.47009472    -0.78200
C287        C  0.22927189  0.85685062  0.46983512     0.82600
N288        N  0.23064215  0.84042859  0.49894187    -0.80000
C289        C  0.30421039  0.50879389  0.61911908     0.80000
N290        N  0.30988548  0.50891010  0.58646878    -0.78300
C291        C  0.31487442  0.48047854  0.57001443     0.82500
N292        N  0.31390557  0.45160644  0.58664269    -0.78200
C293        C  0.30841266  0.45117419  0.61944545     0.82600
N294        N  0.30354424  0.47987846  0.63540320    -0.80000
C295        C  0.15450403  0.45021852  0.80361462     0.80000
N296        N  0.17143207  0.47903531  0.80219930    -0.78300
C297        C  0.15541750  0.50837542  0.80214629     0.82500
N298        N  0.12212054  0.50855046  0.80337421    -0.78200
C299        C  0.10482695  0.48011373  0.80496192     0.82600
N300        N  0.12127401  0.45115155  0.80500156    -0.80000
O301        O  0.25217017  0.74583978  0.85047677    -0.86700
O302        O  0.21328056  0.69716672  0.67624360    -0.86900
O303        O  0.18361562  0.76147522  0.76542437    -0.88500
O304        O  0.20944052  0.65850793  0.78110349    -0.87300
O305        O  0.25741206  0.62939873  0.78031611    -0.86900
O306        O  0.21043568  0.80650845  0.74524892    -0.88200
O307        O  0.18401567  0.69914859  0.72412512    -0.86700
O308        O  0.20689566  0.72528932  0.82444065    -0.86300
Zr309      Zr  0.22156160  0.71593297  0.76736673     2.84300
O310        O  0.25444057  0.68277260  0.73467043    -1.08300
O311        O  0.25187865  0.76227814  0.78197413    -1.09000
C312        C  0.22198048  0.73673240  0.84982307     1.06400
C313        C  0.18636641  0.69449263  0.69290850     1.06400
C314        C  0.18475082  0.79173147  0.75636295     1.09300
C315        C  0.22600906  0.63151868  0.78375741     1.07100
H316        H  0.21797411  0.75265166  0.70826450     0.32700
O317        O  0.23697072  0.74575860  0.72054770    -1.29200
H318        H  0.26010843  0.68851558  0.81709622     0.32300
O319        O  0.26729042  0.70063966  0.79812877    -1.30900
O320        O  0.31609772  0.71701064  0.65057259    -0.86700
O321        O  0.35485567  0.76014470  0.82615672    -0.88200
O322        O  0.25253545  0.80353652  0.67802267    -0.86800
O323        O  0.29807343  0.62926144  0.72077930    -0.86800
O324        O  0.31455206  0.65506822  0.82200533    -0.86500
O325        O  0.26860298  0.83004801  0.78037055    -0.86300
O326        O  0.35889381  0.80104507  0.71859811    -0.86700
O327        O  0.38510649  0.69975713  0.73949703    -0.86200
O328        O  0.31075191  0.82982773  0.71905011    -0.87200
O329        O  0.35799007  0.65480118  0.75945535    -0.86400
O330        O  0.25415479  0.75516194  0.64960253    -0.86800
O331        O  0.28773198  0.80428520  0.82652225    -0.86500
O332        O  0.31243875  0.70304292  0.85101794    -0.86200
O333        O  0.27865378  0.65503819  0.67484110    -0.86600
O334        O  0.36190880  0.73534025  0.67774116    -0.86900
O335        O  0.38370934  0.75886341  0.77812232    -0.88200
Zr336      Zr  0.27028803  0.71246397  0.68828525     2.83100
Zr337      Zr  0.29772365  0.74713908  0.81289599     2.83500
Zr338      Zr  0.26732744  0.79196405  0.73538056     2.84100
Zr339      Zr  0.30052644  0.66802381  0.76528031     2.83400
Zr340      Zr  0.34624366  0.74417815  0.73412591     2.84200
O341        O  0.33079046  0.71417233  0.78047170    -1.08800
O342        O  0.30048713  0.75902855  0.70296477    -1.08300
C343        C  0.34652313  0.72554524  0.65197776     1.06400
C344        C  0.38175521  0.76236136  0.80951734     1.09000
C345        C  0.24979674  0.78650507  0.65131496     1.06600
C346        C  0.28915157  0.62960641  0.69052958     1.06900
C347        C  0.31659563  0.67161106  0.84893673     1.06500
C348        C  0.27656491  0.82945337  0.81090180     1.06100
C349        C  0.34213543  0.82782234  0.71515352     1.06500
C350        C  0.38399770  0.66990884  0.74979519     1.06000
H351        H  0.32554612  0.79659392  0.77359820     0.32700
O352        O  0.31345109  0.77748481  0.76670953    -1.29900
H353        H  0.33065091  0.68349161  0.70525367     0.32700
O354        O  0.31676274  0.69726533  0.71854935    -1.31300
C355        C  0.77275992  0.44835536  0.38036961     0.80000
N356        N  0.77148914  0.44863003  0.41350558    -0.78300
C357        C  0.77115331  0.47738904  0.43005488     0.82500
N358        N  0.77250378  0.50596976  0.41321182    -0.78200
C359        C  0.77396412  0.50596733  0.38008265     0.82600
N360        N  0.77404206  0.47705803  0.36384949    -0.80000
C361        C  0.91246550  0.50410951  0.20154570     0.80000
N362        N  0.89650320  0.47480450  0.20126788    -0.78300
C363        C  0.91335993  0.44598768  0.20020785     0.82500
N364        N  0.94662629  0.44678442  0.19961845    -0.78200
C365        C  0.96311335  0.47570355  0.19985106     0.82600
N366        N  0.94582891  0.50424182  0.20074498    -0.80000
C367        C  0.56163124  0.59827743  0.26509754     0.80000
N368        N  0.56182167  0.56529825  0.26917347    -0.78300
C369        C  0.53333400  0.54864410  0.27301314     0.82500
N370        N  0.50457014  0.56528248  0.27252874    -0.78200
C371        C  0.50406467  0.59820995  0.26836181     0.82600
N372        N  0.53271001  0.61448630  0.26462703    -0.80000
C373        C  0.56361988  0.78062271  0.12105681     0.80000
N374        N  0.56316867  0.78312663  0.08780010    -0.78300
C375        C  0.53440309  0.78416601  0.07095039     0.82500
N376        N  0.50575555  0.78244390  0.08790932    -0.78200
C377        C  0.50548592  0.78002384  0.12116411     0.82600
N378        N  0.53458454  0.77910621  0.13749244    -0.80000
O379        O  0.79838133  0.82809187  0.21784874    -0.86700
O380        O  0.75045472  0.65240736  0.17887294    -0.86900
O381        O  0.81398605  0.74201625  0.14878576    -0.88500
O382        O  0.71279841  0.75909250  0.17554029    -0.87300
O383        O  0.68458871  0.75761315  0.22395409    -0.86900
O384        O  0.85987042  0.72154261  0.17397437    -0.88200
O385        O  0.75165717  0.70068604  0.15031547    -0.86700
O386        O  0.77858280  0.80126237  0.17252496    -0.86300
Zr387      Zr  0.76964368  0.74414412  0.18746684     2.84300
O388        O  0.73695648  0.71171357  0.22079573    -1.08300
O389        O  0.81664845  0.75907188  0.21670092    -1.09000
C390        C  0.78925714  0.82698915  0.18757980     1.06400
C391        C  0.74690026  0.66937968  0.15230539     1.06400
C392        C  0.84417813  0.73298202  0.14890447     1.09300
C393        C  0.68619803  0.76178509  0.19258292     1.07100
H394        H  0.80656887  0.68504354  0.18261633     0.32700
O395        O  0.80010419  0.69734606  0.20174638    -1.29200
H396        H  0.74300394  0.79375005  0.22684090     0.32300
O397        O  0.75520842  0.77471174  0.23369909    -1.30900
O398        O  0.77010171  0.62676939  0.28007452    -0.86700
O399        O  0.81681199  0.80168607  0.32034107    -0.88200
O400        O  0.85864170  0.65482943  0.21909911    -0.86800
O401        O  0.68362975  0.69776433  0.26331163    -0.86800
O402        O  0.71089885  0.79916750  0.28237928    -0.86500
O403        O  0.88502126  0.75776572  0.23231649    -0.86300
O404        O  0.85666785  0.69546527  0.32349352    -0.86700
O405        O  0.75566100  0.71346771  0.35082059    -0.86200
O406        O  0.88516913  0.69715205  0.27523467    -0.87200
O407        O  0.70982975  0.73335653  0.32507966    -0.86400
O408        O  0.81041149  0.62629190  0.22092545    -0.86800
O409        O  0.85912469  0.80396871  0.25146604    -0.86500
O410        O  0.75917634  0.82761183  0.27948471    -0.86200
O411        O  0.70942941  0.65222602  0.24285775    -0.86600
O412        O  0.79136957  0.65311917  0.32501889    -0.86900
O413        O  0.81491137  0.75355262  0.34911285    -0.88200
Zr414      Zr  0.76702719  0.66515533  0.23525203     2.83100
Zr415      Zr  0.80234257  0.78966084  0.26304011     2.83500
Zr416      Zr  0.84678622  0.71251794  0.23161030     2.84100
Zr417      Zr  0.72281905  0.74205551  0.26742381     2.83400
Zr418      Zr  0.79966146  0.71027859  0.31115066     2.84200
O419        O  0.76973998  0.75708597  0.29664657    -1.08800
O420        O  0.81401475  0.67984871  0.26480567    -1.08300
C421        C  0.78010450  0.62768761  0.31000054     1.06400
C422        C  0.81902821  0.78485864  0.34721594     1.09000
C423        C  0.84184721  0.62795778  0.21723099     1.06600
C424        C  0.68393876  0.66771873  0.25340654     1.06900
C425        C  0.72795011  0.82588226  0.28438976     1.06500
C426        C  0.88432265  0.78835565  0.24028091     1.06100
C427        C  0.88343183  0.69293798  0.30662495     1.06500
C428        C  0.72542477  0.72262148  0.35050225     1.06000
H429        H  0.85177875  0.75024080  0.29004557     0.32700
O430        O  0.83257808  0.74327265  0.27815541    -1.29900
H431        H  0.73878068  0.68144499  0.29602650     0.32700
O432        O  0.75238135  0.69499302  0.28224209    -1.31300
C433        C  0.65142103  0.71024414  0.52917560     0.80000
N434        N  0.61919349  0.70246240  0.52827085    -0.78300
C435        C  0.60351516  0.69812850  0.49931573     0.82500
N436        N  0.62047539  0.70178092  0.47099231    -0.78200
C437        C  0.65276428  0.70950983  0.47137487     0.82600
N438        N  0.66806419  0.71373616  0.50058754    -0.80000
C439        C  0.83685649  0.85495881  0.52836925     0.80000
N440        N  0.83564639  0.83885609  0.49916151    -0.78300
C441        C  0.83488515  0.85566696  0.47035557     0.82500
N442        N  0.83513482  0.88896473  0.47116513    -0.78200
C443        C  0.83628739  0.90548799  0.50005356     0.82600
N444        N  0.83703515  0.88825290  0.52849883    -0.80000
C445        C  0.56228868  0.59793880  0.76255126     0.80000
N446        N  0.56209308  0.56590115  0.77144408    -0.78300
C447        C  0.53336421  0.54972259  0.77565366     0.82500
N448        N  0.50478669  0.56594405  0.77076403    -0.78200
C449        C  0.50465108  0.59793150  0.76188537     0.82600
N450        N  0.53350270  0.61373792  0.75787927    -0.80000
C451        C  0.50568746  0.78197568  0.87815346     0.80000
N452        N  0.50623675  0.78439968  0.91140757    -0.78300
C453        C  0.53501923  0.78755942  0.92797327     0.82500
N454        N  0.56350641  0.78825565  0.91074119    -0.78200
C455        C  0.56358879  0.78595330  0.87749652     0.82600
N456        N  0.53454248  0.78270858  0.86149260    -0.80000
C457        C  0.77725833  0.44968184  0.62046550     0.80000
N458        N  0.77845268  0.47849399  0.63689654    -0.78300
C459        C  0.77808227  0.50729541  0.62050139     0.82500
N460        N  0.77626368  0.50733744  0.58744310    -0.78200
C461        C  0.77484741  0.47874096  0.57067983     0.82600
N462        N  0.77534944  0.44996967  0.58730877    -0.80000
C463        C  0.91306563  0.50835286  0.79141511     0.80000
N464        N  0.94605902  0.50778172  0.79548590    -0.78300
C465        C  0.96266764  0.47898255  0.79770668     0.82500
N466        N  0.94580093  0.45032483  0.79565259    -0.78200
C467        C  0.91272616  0.45023246  0.79159165     0.82600
N468        N  0.89659143  0.47939103  0.78947328    -0.80000
O469        O  0.81459287  0.74533646  0.85059055    -0.86700
O470        O  0.85407210  0.69854694  0.67504374    -0.86900
O471        O  0.85858039  0.65879599  0.78035341    -0.88500
O472        O  0.88468045  0.76081032  0.76013474    -0.87300
O473        O  0.85752554  0.80534817  0.73908414    -0.86900
O474        O  0.81026813  0.63032267  0.78000113    -0.88200
O475        O  0.88334757  0.70117958  0.72282343    -0.86700
O476        O  0.86018188  0.72566815  0.82408856    -0.86300
Zr477      Zr  0.84589751  0.71620701  0.76685501     2.84300
O478        O  0.82998893  0.74500438  0.71984496    -1.08300
O479        O  0.79986889  0.70161110  0.79767740    -1.09000
C480        C  0.84479904  0.73626079  0.84968227     1.06400
C481        C  0.88118452  0.69686410  0.69152220     1.06400
C482        C  0.84172558  0.63195725  0.78270194     1.09300
C483        C  0.88357042  0.79044106  0.74904237     1.07100
H484        H  0.82486626  0.66367222  0.72759289     0.32700
O485        O  0.81276955  0.68272280  0.73462223    -1.29200
H486        H  0.83034231  0.77709616  0.79433742     0.32300
O487        O  0.81628190  0.76321966  0.78136419    -1.30900
O488        O  0.75107620  0.71475848  0.65015258    -0.86700
O489        O  0.71353674  0.76514844  0.82455113    -0.88200
O490        O  0.76831068  0.62852938  0.72142241    -0.86800
O491        O  0.81483582  0.80227328  0.67679327    -0.86800
O492        O  0.79920679  0.83126360  0.77754889    -0.86500
O493        O  0.75468636  0.65673401  0.82312252    -0.86300
O494        O  0.68189173  0.69914017  0.73943859    -0.86700
O495        O  0.70841661  0.80023929  0.71813875    -0.86200
O496        O  0.70914207  0.65423758  0.75961487    -0.87200
O497        O  0.75649363  0.82912134  0.71786427    -0.86400
O498        O  0.78818479  0.65424963  0.67563373    -0.86800
O499        O  0.75562936  0.70520450  0.85140225    -0.86500
O500        O  0.78092011  0.80596911  0.82436771    -0.86200
O501        O  0.81297702  0.75349519  0.64917393    -0.86600
O502        O  0.70536677  0.73374214  0.67698105    -0.86900
O503        O  0.68405105  0.76190552  0.77694027    -0.88200
Zr504      Zr  0.79661830  0.71164778  0.68807895     2.83100
Zr505      Zr  0.76994772  0.74852269  0.81210115     2.83500
Zr506      Zr  0.76661781  0.66822339  0.76552474     2.84100
Zr507      Zr  0.80002608  0.79153395  0.73399891     2.83400
Zr508      Zr  0.72076986  0.74356569  0.73363657     2.84200
O509        O  0.75396840  0.77753551  0.76526164    -1.08800
O510        O  0.75028418  0.69665705  0.71847985    -1.08300
C511        C  0.72074157  0.72358200  0.65126349     1.06400
C512        C  0.68658349  0.76756093  0.80798656     1.09000
C513        C  0.77763095  0.62885612  0.69123989     1.06600
C514        C  0.81758325  0.78474585  0.65048128     1.06900
C515        C  0.79174299  0.83096302  0.80817238     1.06500
C516        C  0.75233184  0.67364693  0.84984838     1.06100
C517        C  0.68307497  0.66933408  0.74991999     1.06500
C518        C  0.72512751  0.82694249  0.71437678     1.06000
H519        H  0.71783141  0.70811764  0.79352811     0.32700
O520        O  0.73659504  0.71462956  0.78069370    -1.29900
H521        H  0.75930368  0.77021736  0.68314576     0.32700
O522        O  0.76638557  0.75835971  0.70232824    -1.31300
C523        C  0.50706746  0.35846109  0.26381523     0.80000
N524        N  0.50739628  0.39125543  0.26860970    -0.78300
C525        C  0.53607836  0.40767019  0.27175345     0.82500
N526        N  0.56470971  0.39088932  0.26984574    -0.78200
C527        C  0.56462168  0.35795699  0.26514934     0.82600
N528        N  0.53575719  0.34199179  0.26205775    -0.80000
C529        C  0.56443158  0.17159844  0.12481503     0.80000
N530        N  0.56419146  0.17011933  0.09152078    -0.78300
C531        C  0.53554428  0.17007453  0.07449726     0.82500
N532        N  0.50678772  0.17162625  0.09131561    -0.78200
C533        C  0.50639911  0.17313707  0.12461590     0.82600
N534        N  0.53538367  0.17316926  0.14105547    -0.80000
O535        O  0.81611413  0.21240520  0.15109340    -0.86700
O536        O  0.85662917  0.25733567  0.32566677    -0.86900
O537        O  0.85956918  0.29669574  0.21864559    -0.88500
O538        O  0.88644771  0.19564749  0.23774492    -0.87300
O539        O  0.86042154  0.14971346  0.25729049    -0.86900
O540        O  0.81130253  0.32525315  0.21938868    -0.88200
O541        O  0.88544615  0.25590239  0.27762295    -0.86700
O542        O  0.86152761  0.23241420  0.17744556    -0.86300
Zr543      Zr  0.84747840  0.24012135  0.23444138     2.84300
O544        O  0.83295407  0.21027989  0.28117021    -1.08300
O545        O  0.80135014  0.25468727  0.20375919    -1.09000
C546        C  0.84618795  0.22194764  0.15190987     1.06400
C547        C  0.88345965  0.25989507  0.30895431     1.06400
C548        C  0.84260384  0.32329978  0.21525081     1.09300
C549        C  0.88581291  0.16532872  0.24660501     1.07100
H550        H  0.82689694  0.29256628  0.27371104     0.32700
O551        O  0.81478720  0.27340140  0.26703115    -1.29200
H552        H  0.83197536  0.17971250  0.20575803     0.32300
O553        O  0.81811831  0.19325036  0.21931150    -1.30900
O554        O  0.75436987  0.24083429  0.35154507    -0.86700
O555        O  0.71474487  0.19215996  0.17706729    -0.88200
O556        O  0.77030277  0.32659807  0.28062862    -0.86800
O557        O  0.81787124  0.15238758  0.32327065    -0.86800
O558        O  0.80083391  0.12493215  0.22165172    -0.86500
O559        O  0.75372981  0.29933436  0.17933601    -0.86300
O560        O  0.68503696  0.25650086  0.26545446    -0.86700
O561        O  0.71083934  0.15490245  0.28460481    -0.86200
O562        O  0.71134168  0.30162229  0.24486341    -0.87200
O563        O  0.75918754  0.12649790  0.28237401    -0.86400
O564        O  0.79049571  0.30068190  0.32616597    -0.86800
O565        O  0.75549180  0.25103934  0.15086039    -0.86500
O566        O  0.78184656  0.15103800  0.17552863    -0.86200
O567        O  0.81532990  0.20063372  0.35185613    -0.86600
O568        O  0.70867786  0.22122195  0.32517759    -0.83700
O569        O  0.68596068  0.19430533  0.22513607    -0.88200
Zr570      Zr  0.79950760  0.24336321  0.31328882     2.83100
Zr571      Zr  0.77135895  0.20795763  0.18939134     2.83500
Zr572      Zr  0.76829536  0.28752869  0.23634832     2.84100
Zr573      Zr  0.80305497  0.16381154  0.26619198     2.83400
Zr574      Zr  0.72335751  0.21140288  0.26838457     2.84200
O575        O  0.75632775  0.17797807  0.23589078    -1.08800
O576        O  0.75299678  0.25820589  0.28321172    -1.08300
C577        C  0.72413163  0.23179345  0.35066166     1.06400
C578        C  0.68799859  0.18955757  0.19389736     1.09000
C579        C  0.77952899  0.32607095  0.31081589     1.06600
C580        C  0.81987019  0.16933893  0.35003670     1.06900
C581        C  0.79270437  0.12574151  0.19115179     1.06500
C582        C  0.75110721  0.28239512  0.15263922     1.06100
C583        C  0.68585287  0.28664452  0.25594042     1.06500
C584        C  0.72793718  0.12827902  0.28721604     1.06000
H585        H  0.71906683  0.24789843  0.20921345     0.32700
O586        O  0.73810151  0.24120731  0.22151741    -1.29900
H587        H  0.76270558  0.18457493  0.31782576     0.32700
O588        O  0.76960775  0.19658548  0.29867736    -1.31300
C589        C  0.50488787  0.36096281  0.77634241     0.80000
N590        N  0.50555923  0.39333553  0.78367853    -0.78300
C591        C  0.53441654  0.40954998  0.78672413     0.82500
N592        N  0.56285903  0.39297543  0.78205615    -0.78200
C593        C  0.56264680  0.36051455  0.77475595     0.82600
N594        N  0.53355056  0.34478485  0.77184787    -0.80000
C595        C  0.50484139  0.17574974  0.88150015     0.80000
N596        N  0.50530278  0.17366694  0.91473442    -0.78300
C597        C  0.53410071  0.17263819  0.93154591     0.82500
N598        N  0.56282015  0.17374798  0.91454833    -0.78200
C599        C  0.56295812  0.17594328  0.88126799     0.82600
N600        N  0.53382411  0.17701553  0.86507290    -0.80000
C601        C  0.65508440  0.24361293  0.53017957     0.80000
N602        N  0.67102774  0.24027348  0.50123001    -0.78300
C603        C  0.65472055  0.24393140  0.47249972     0.82500
N604        N  0.62232947  0.25090466  0.47305613    -0.78200
C605        C  0.60613600  0.25435458  0.50177853     0.82600
N606        N  0.62266213  0.25057120  0.53020810    -0.80000
C607        C  0.82893862  0.09768650  0.47276635     0.80000
N608        N  0.82662170  0.11431971  0.50154775    -0.78300
C609        C  0.82552434  0.09813658  0.53065959     0.82500
N610        N  0.82678884  0.06482078  0.53071480    -0.78200
C611        C  0.82913856  0.04774247  0.50224247     0.82600
N612        N  0.83016082  0.06442826  0.47343944    -0.80000
O613        O  0.81546944  0.21749907  0.85271327    -0.86700
O614        O  0.85385579  0.25772592  0.67538120    -0.86900
O615        O  0.88404428  0.19637398  0.76511886    -0.88500
O616        O  0.85910780  0.29924261  0.77798442    -0.87300
O617        O  0.81104605  0.32817688  0.77860603    -0.86900
O618        O  0.85686722  0.15116507  0.74575784    -0.88200
O619        O  0.88324088  0.25587202  0.72308718    -0.86700
O620        O  0.86057910  0.23594546  0.82458092    -0.86300
Zr621      Zr  0.84586432  0.24160730  0.76746943     2.84300
O622        O  0.81285356  0.27474723  0.73513353    -1.08300
O623        O  0.81620897  0.19532637  0.78420833    -1.09000
C624        C  0.84557353  0.22703892  0.85090005     1.06400
C625        C  0.88097586  0.25977025  0.69173241     1.06400
C626        C  0.88284538  0.16618692  0.75581259     1.09300
C627        C  0.84259527  0.32623009  0.78048203     1.07100
H628        H  0.84868970  0.20356428  0.70913302     0.32700
O629        O  0.83002149  0.21092998  0.72164245    -1.29200
H630        H  0.80737687  0.27033651  0.81703056     0.32300
O631        O  0.80031488  0.25760841  0.79841896    -1.30900
O632        O  0.75232509  0.23970290  0.65139705    -0.86700
O633        O  0.71331003  0.19625182  0.82789634    -0.88200
O634        O  0.81138027  0.15217400  0.68095240    -0.86800
O635        O  0.76978386  0.32822561  0.72041831    -0.86800
O636        O  0.75244829  0.30250635  0.82287651    -0.86500
O637        O  0.79724828  0.12699629  0.78272799    -0.86300
O638        O  0.70764752  0.15708050  0.72171425    -0.86700
O639        O  0.68152573  0.25892137  0.74245604    -0.86200
O640        O  0.75562388  0.12798283  0.72316342    -0.87200
O641        O  0.70941019  0.30395097  0.76109741    -0.86400
O642        O  0.81018544  0.20011225  0.65186956    -0.86800
O643        O  0.78101780  0.15438716  0.82923138    -0.86500
O644        O  0.75248514  0.25442976  0.85186080    -0.86200
O645        O  0.78945830  0.30139419  0.67508183    -0.86600
O646        O  0.70628104  0.22215635  0.67865270    -0.86900
O647        O  0.68392185  0.19858205  0.78011983    -0.88200
Zr648      Zr  0.79689246  0.24428543  0.68956318     2.83100
Zr649      Zr  0.77020255  0.21126908  0.81465255     2.83500
Zr650      Zr  0.79949026  0.16549126  0.73814588     2.84100
Zr651      Zr  0.76688649  0.29010349  0.76575176     2.83400
Zr652      Zr  0.72060037  0.21422237  0.73586438     2.84200
O653        O  0.73702987  0.24411075  0.78186825    -1.08800
O654        O  0.76644257  0.19836975  0.70544102    -1.08300
C655        C  0.72199942  0.23127349  0.65276665     1.06400
C656        C  0.68628326  0.19405429  0.81135740     1.09000
C657        C  0.81327767  0.16867213  0.65396458     1.06600
C658        C  0.77918125  0.32715935  0.69025987     1.06900
C659        C  0.74865755  0.28579977  0.84961536     1.06500
C660        C  0.79032567  0.12856956  0.81343356     1.06100
C661        C  0.72432633  0.13013400  0.71914239     1.06500
C662        C  0.68294278  0.28887105  0.75267942     1.06000
H663        H  0.74145858  0.16221805  0.77615789     0.32700
O664        O  0.75357281  0.18114369  0.76886075    -1.29900
H665        H  0.73647725  0.27431219  0.70587848     0.32700
O666        O  0.75029671  0.26061429  0.71932551    -1.31300
O667        O  0.25378191  0.21264472  0.15150730    -0.86700
O668        O  0.21377947  0.26003686  0.32495704    -0.86900
O669        O  0.18592373  0.19502391  0.23726638    -0.88500
O670        O  0.20982144  0.29849008  0.22169219    -0.87300
O671        O  0.25749062  0.32788892  0.22359825    -0.86900
O672        O  0.21262971  0.14947534  0.25668899    -0.88200
O673        O  0.18519005  0.25759116  0.27676159    -0.86700
O674        O  0.20801172  0.23204141  0.17759156    -0.86300
Zr675      Zr  0.22310504  0.24117410  0.23439836     2.84300
O676        O  0.25543676  0.27454807  0.26737255    -1.08300
O677        O  0.25335280  0.19505458  0.21915192    -1.09000
C678        C  0.22331778  0.22097250  0.15223359     1.06400
C679        C  0.18709159  0.26247208  0.30787691     1.06400
C680        C  0.18703772  0.16462248  0.24595272     1.09300
C681        C  0.22615525  0.32564244  0.21998056     1.07100
H682        H  0.21940275  0.20424757  0.29332865     0.32700
O683        O  0.23836457  0.21137468  0.28117806    -1.29200
H684        H  0.26132113  0.26955774  0.18526000     0.32300
O685        O  0.26872350  0.25744396  0.20415813    -1.30900
O686        O  0.31607739  0.24060984  0.35254328    -0.86700
O687        O  0.35631237  0.19695935  0.17668922    -0.88200
O688        O  0.25506216  0.15303827  0.32264447    -0.86800
O689        O  0.29771597  0.32886597  0.28221149    -0.86800
O690        O  0.31479650  0.30320317  0.18036045    -0.86500
O691        O  0.27128500  0.12774251  0.22009218    -0.86300
O692        O  0.36054622  0.15799881  0.28371144    -0.86700
O693        O  0.38515534  0.25994070  0.26327250    -0.86200
O694        O  0.31287416  0.12849796  0.28205603    -0.87200
O695        O  0.35852201  0.30542297  0.24386724    -0.86400
O696        O  0.25599310  0.20117907  0.35147328    -0.86800
O697        O  0.28995731  0.15429903  0.17419228    -0.86500
O698        O  0.31395192  0.25505225  0.15151980    -0.86200
O699        O  0.27868334  0.30239489  0.32801153    -0.86600
O700        O  0.36195446  0.22253145  0.32541129    -0.86900
O701        O  0.38503872  0.19842628  0.22483047    -0.88200
Zr702      Zr  0.27107340  0.24499158  0.31380751     2.83100
Zr703      Zr  0.29937755  0.21115080  0.18921127     2.83500
Zr704      Zr  0.26911767  0.16554840  0.26566573     2.84100
Zr705      Zr  0.30155162  0.29025572  0.23737541     2.83400
Zr706      Zr  0.34745324  0.21454033  0.26831581     2.84200
O707        O  0.33221129  0.24441464  0.22182924    -1.08800
O708        O  0.30156550  0.19881057  0.29859384    -1.08300
C709        C  0.34649522  0.23194615  0.35133955     1.06400
C710        C  0.38305307  0.19423834  0.19350085     1.09000
C711        C  0.25228461  0.16976903  0.34944360     1.06600
C712        C  0.28873002  0.32808485  0.31249495     1.06900
C713        C  0.31720483  0.28651181  0.15351485     1.06500
C714        C  0.27938571  0.12875467  0.18958621     1.06100
C715        C  0.34408235  0.13102360  0.28648695     1.06500
C716        C  0.38430405  0.29011166  0.25382532     1.06000
H717        H  0.32761935  0.16206411  0.22830318     0.32700
O718        O  0.31529558  0.18100779  0.23526623    -1.29900
H719        H  0.33124034  0.27479651  0.29773004     0.32700
O720        O  0.31761726  0.26102701  0.28416036    -1.31300
C721        C  0.81841784  0.16751216  0.59278114    -0.21500
C722        C  0.81821619  0.15038607  0.62273812    -0.09600
C723        C  0.82078237  0.11591269  0.62197609     0.29300
C724        C  0.82329339  0.09932737  0.59207591    -0.21500
C725        C  0.82316442  0.11645835  0.56213857    -0.09600
C726        C  0.82070321  0.15093115  0.56290881     0.29300
F727        F  0.81998618  0.16887616  0.53491332    -0.20100
H728        H  0.81620428  0.19397197  0.59226076     0.17700
H729        H  0.82512971  0.07284422  0.59250114     0.17700
F730        F  0.82041006  0.09795262  0.64996690    -0.20100
C731        C  0.65631258  0.24794248  0.59082536    -0.21500
C732        C  0.67233764  0.23937284  0.56152138    -0.09600
C733        C  0.70447361  0.22688370  0.56284223     0.29300
C734        C  0.72019362  0.22369388  0.59288113    -0.21500
C735        C  0.70415205  0.23259546  0.62191571    -0.09600
C736        C  0.67203124  0.24454533  0.62082409     0.29300
F737        F  0.65641756  0.25434274  0.64852457    -0.20100
H738        H  0.63168656  0.25780844  0.59062710     0.17700
H739        H  0.74503067  0.21428556  0.59348629     0.17700
F740        F  0.72079551  0.21763709  0.53537881    -0.20100
C741        C  0.62460267  0.17132243  0.87827501    -0.21500
C742        C  0.59454715  0.17869289  0.86291579    -0.09600
C743        C  0.59521496  0.18952455  0.83012228     0.29300
C744        C  0.62497905  0.19365658  0.81372174    -0.21500
C745        C  0.65509266  0.18706013  0.82920685    -0.09600
C746        C  0.65451557  0.17525118  0.86166528     0.29300
F747        F  0.68272436  0.16729257  0.87737816    -0.20100
H748        H  0.62502705  0.16252281  0.90330155     0.17700
H749        H  0.62430980  0.20285080  0.78884063     0.17700
F750        F  0.56721804  0.19720279  0.81390532    -0.20100
C751        C  0.59249239  0.30937139  0.75920302    -0.21500
C752        C  0.59353908  0.34263261  0.76827646    -0.09600
C753        C  0.62418437  0.35826111  0.77060175     0.29300
C754        C  0.65287650  0.34077441  0.76459553    -0.21500
C755        C  0.65190226  0.30735891  0.75612957    -0.09600
C756        C  0.62122208  0.29187163  0.75313050     0.29300
F757        F  0.61874297  0.25968398  0.74503788    -0.20100
H758        H  0.56935002  0.29660686  0.75695668     0.17700
H759        H  0.67600440  0.35353903  0.76701454     0.17700
F760        F  0.62677839  0.39035088  0.77894939    -0.20100
C761        C  0.67271988  0.24189776  0.38145421    -0.21500
C762        C  0.70599154  0.23357256  0.38153645    -0.09600
C763        C  0.72196229  0.22743938  0.41138637     0.29300
C764        C  0.70505097  0.23062900  0.44078482    -0.21500
C765        C  0.67190316  0.23986268  0.44097480    -0.09600
C766        C  0.65569968  0.24508545  0.41085793     0.29300
F767        F  0.62357996  0.25361116  0.40956062    -0.20100
H768        H  0.66003435  0.24659526  0.35860615     0.17700
H769        H  0.71806863  0.22587099  0.46340701     0.17700
F770        F  0.75378532  0.21775023  0.41212112    -0.20100
C771        C  0.82609038  0.11675005  0.38134243    -0.21500
C772        C  0.82603859  0.15124911  0.38120324    -0.09600
C773        C  0.82923272  0.16778068  0.41143420     0.29300
C774        C  0.83086202  0.15016843  0.44079832    -0.21500
C775        C  0.82949810  0.11571564  0.44101098    -0.09600
C776        C  0.82782370  0.09914268  0.41070627     0.29300
F777        F  0.82686498  0.06591162  0.40918432    -0.20100
H778        H  0.82377836  0.10314817  0.35867396     0.17700
H779        H  0.83266879  0.16374853  0.46352269     0.17700
F780        F  0.83011882  0.20101823  0.41297546    -0.20100
C781        C  0.50568031  0.17120823  0.02071081    -0.21500
C782        C  0.53552117  0.16987563  0.03789887    -0.09600
C783        C  0.56487564  0.16920910  0.01963746     0.29300
C784        C  0.56412187  0.16989696  0.98532200    -0.21500
C785        C  0.53425989  0.17136368  0.96814262    -0.09600
C786        C  0.50492887  0.17206996  0.98643918     0.29300
F787        F  0.47530888  0.17399764  0.97148413    -0.20100
H788        H  0.48261694  0.17191941  0.03379108     0.17700
H789        H  0.58717318  0.16941530  0.97221142     0.17700
F790        F  0.59449401  0.16812467  0.03470085    -0.20100
C791        C  0.44485316  0.17689593  0.12530052    -0.21500
C792        C  0.47469509  0.17651666  0.14261246    -0.09600
C793        C  0.47369795  0.18056692  0.17692417     0.29300
C794        C  0.44388692  0.18542274  0.19307221    -0.21500
C795        C  0.41411461  0.18660289  0.17571786    -0.09600
C796        C  0.41497869  0.18194353  0.14147473     0.29300
F797        F  0.38713921  0.18281688  0.12331561    -0.20100
H798        H  0.44454310  0.17380590  0.09895463     0.17700
H799        H  0.44435879  0.18892151  0.21936924     0.17700
F800        F  0.50146950  0.18060021  0.19514789    -0.20100
C801        C  0.62604293  0.17287550  0.12576184    -0.21500
C802        C  0.59615320  0.17351768  0.14297379    -0.09600
C803        C  0.59718109  0.17731334  0.17730749     0.29300
C804        C  0.62707050  0.18148069  0.19350682    -0.21500
C805        C  0.65689649  0.18193121  0.17620159    -0.09600
C806        C  0.65600590  0.17699632  0.14201261     0.29300
F807        F  0.68392554  0.17674452  0.12397500    -0.20100
H808        H  0.62634595  0.16974813  0.09942533     0.17700
H809        H  0.62662861  0.18506850  0.21979202     0.17700
F810        F  0.56939193  0.17772457  0.19549580    -0.20100
C811        C  0.44715587  0.35843629  0.25255846    -0.21500
C812        C  0.47581984  0.34098558  0.26026721    -0.09600
C813        C  0.47417879  0.30687747  0.26472361     0.29300
C814        C  0.44442379  0.29076542  0.26200828    -0.21500
C815        C  0.41555538  0.30812070  0.25488186    -0.09600
C816        C  0.41723024  0.34223910  0.24972681     0.29300
F817        F  0.39013338  0.36013210  0.24243519    -0.20100
H818        H  0.44784682  0.38470556  0.24868602     0.17700
H819        H  0.44412542  0.26449341  0.26588399     0.17700
F820        F  0.50103494  0.28895632  0.27264462    -0.20100
C821        C  0.62453318  0.35627203  0.25476405    -0.21500
C822        C  0.59554234  0.33968516  0.26276098    -0.09600
C823        C  0.59642371  0.30559368  0.26795907     0.29300
C824        C  0.62587813  0.28871348  0.26573898    -0.21500
C825        C  0.65498721  0.30523821  0.25784433    -0.09600
C826        C  0.65398497  0.33927264  0.25198377     0.29300
F827        F  0.68128499  0.35630057  0.24360859    -0.20100
H828        H  0.62438956  0.38243639  0.25020163     0.17700
H829        H  0.62571326  0.26251442  0.27011103     0.17700
F830        F  0.56904082  0.28841840  0.27566133    -0.20100
C831        C  0.84384107  0.38707278  0.79021003    -0.21500
C832        C  0.86100449  0.35758501  0.78481534    -0.09600
C833        C  0.89541228  0.35903053  0.78180680     0.29300
C834        C  0.91186517  0.38906635  0.78430136    -0.21500
C835        C  0.89463483  0.41853361  0.78942316    -0.09600
C836        C  0.86026729  0.41711803  0.79235387     0.29300
F837        F  0.84230671  0.44466078  0.79748518    -0.20100
H838        H  0.81741527  0.38706652  0.79250913     0.17700
H839        H  0.93825834  0.38922257  0.78165292     0.17700
F840        F  0.91331832  0.33166209  0.77561290    -0.20100
C841        C  0.89407648  0.60016604  0.79007826    -0.21500
C842        C  0.85977472  0.60036000  0.78689505    -0.09600
C843        C  0.84337844  0.56989153  0.78501815     0.29300
C844        C  0.86087058  0.54043809  0.78647138    -0.21500
C845        C  0.89513506  0.54021896  0.78962705    -0.09600
C846        C  0.91161400  0.57063559  0.79126601     0.29300
F847        F  0.94474070  0.57215743  0.79358205    -0.20100
H848        H  0.90758938  0.62298416  0.79110335     0.17700
H849        H  0.84734328  0.51766256  0.78491177     0.17700
F850        F  0.81041491  0.56820451  0.78098702    -0.20100
C851        C  0.77949115  0.38784472  0.68937543    -0.21500
C852        C  0.77847168  0.35818020  0.67202206    -0.09600
C853        C  0.77702700  0.35874672  0.63761346     0.29300
C854        C  0.77676208  0.38860248  0.62105821    -0.21500
C855        C  0.77779144  0.41835059  0.63843319    -0.09600
C856        C  0.77913286  0.41764471  0.67291462     0.29300
F857        F  0.78005627  0.44556322  0.69100457    -0.20100
H858        H  0.78087187  0.38806529  0.71588507     0.17700
H859        H  0.77554611  0.38831369  0.59455587     0.17700
F860        F  0.77511037  0.33060347  0.61993871    -0.20100
C861        C  0.76217682  0.54022734  0.66874067    -0.21500
C862        C  0.77833635  0.53821631  0.63854230    -0.09600
C863        C  0.79400087  0.56595545  0.62566600     0.29300
C864        C  0.79337587  0.59534554  0.64289349    -0.21500
C865        C  0.77704239  0.59762380  0.67314469    -0.09600
C866        C  0.76125168  0.56968625  0.68590339     0.29300
F867        F  0.74454682  0.57071709  0.71463951    -0.20100
H868        H  0.74969112  0.51906681  0.67880554     0.17700
H869        H  0.80610373  0.61623561  0.63260235     0.17700
F870        F  0.81070344  0.56447913  0.59694048    -0.20100
C871        C  0.62504112  0.78317569  0.87658347    -0.21500
C872        C  0.59525909  0.78472209  0.85925756    -0.09600
C873        C  0.59634053  0.78350605  0.82474427     0.29300
C874        C  0.62617141  0.77922912  0.80841683    -0.21500
C875        C  0.65580058  0.77606808  0.82583099    -0.09600
C876        C  0.65489386  0.77888313  0.86025002     0.29300
F877        F  0.68260026  0.77638870  0.87845596    -0.20100
H878        H  0.62530275  0.78431918  0.90307903     0.17700
H879        H  0.62582034  0.77760265  0.78193583     0.17700
F880        F  0.56864938  0.78583782  0.80651248    -0.20100
C881        C  0.56305097  0.49778828  0.78862926    -0.21500
C882        C  0.53327272  0.51441607  0.78381399    -0.09600
C883        C  0.50383495  0.49647484  0.78502105     0.29300
C884        C  0.50452147  0.46257716  0.78844171    -0.21500
C885        C  0.53440002  0.44562313  0.79031715    -0.09600
C886        C  0.56372878  0.46374614  0.79189586     0.29300
F887        F  0.59320665  0.44875510  0.79529648    -0.20100
H888        H  0.58608676  0.51093948  0.78866694     0.17700
H889        H  0.48144181  0.44953210  0.78777657     0.17700
F890        F  0.47426380  0.51114102  0.78121139    -0.20100
C891        C  0.59302304  0.65031963  0.75825556    -0.21500
C892        C  0.59330556  0.61586497  0.75843395    -0.09600
C893        C  0.62327840  0.59920441  0.75489169     0.29300
C894        C  0.65230715  0.61681417  0.75162711    -0.21500
C895        C  0.65202031  0.65122631  0.75176683    -0.09600
C896        C  0.62202507  0.66791891  0.75505775     0.29300
F897        F  0.62070201  0.70117718  0.75642496    -0.20100
H898        H  0.57035260  0.66381517  0.76123095     0.17700
H899        H  0.67508944  0.60344181  0.74894750     0.17700
F900        F  0.62467535  0.56596261  0.75422919    -0.20100
C901        C  0.82973494  0.95858959  0.53038181    -0.21500
C902        C  0.83519389  0.94191419  0.50069062    -0.09600
C903        C  0.83885736  0.96045894  0.47182445     0.29300
C904        C  0.83673501  0.99459308  0.47272340    -0.21500
C905        C  0.83106329  0.01132387  0.50229852    -0.09600
C906        C  0.82762575  0.99282676  0.53129920     0.29300
F907        F  0.82192036  0.00753736  0.56058325    -0.20100
H908        H  0.82668710  0.94513030  0.55304622     0.17700
H909        H  0.83975400  0.00791800  0.44998653     0.17700
F910        F  0.84485148  0.94585920  0.44257656    -0.20100
C911        C  0.82777407  0.80290653  0.55954039    -0.21500
C912        C  0.83537788  0.83648698  0.55977346    -0.09600
C913        C  0.83976248  0.85220423  0.59026975     0.29300
C914        C  0.83462252  0.83509740  0.61952951    -0.21500
C915        C  0.82561002  0.80183773  0.61926387    -0.09600
C916        C  0.82310910  0.78569163  0.58875383     0.29300
F917        F  0.81530901  0.75341792  0.58679347    -0.20100
H918        H  0.82456873  0.78992100  0.53661969     0.17700
H919        H  0.83743533  0.84812942  0.64247719     0.17700
F920        F  0.84882892  0.88416691  0.59206326    -0.20100
C921        C  0.70144712  0.72422460  0.56107542    -0.21500
C922        C  0.66830140  0.71503765  0.56087084    -0.09600
C923        C  0.65205418  0.71031624  0.59105640     0.29300
C924        C  0.66905717  0.71391312  0.62049421    -0.21500
C925        C  0.70240332  0.72196569  0.62039171    -0.09600
C926        C  0.71834059  0.72767066  0.59045281     0.29300
F927        F  0.75020663  0.73700592  0.58955120    -0.20100
H928        H  0.71456672  0.72858712  0.53843911     0.17700
H929        H  0.65634430  0.70952119  0.64337542     0.17700
F930        F  0.61998641  0.70168164  0.59239838    -0.20100
C931        C  0.67269956  0.71966720  0.38112517    -0.21500
C932        C  0.70707131  0.72004251  0.38161268    -0.09600
C933        C  0.72339627  0.71708890  0.41190684     0.29300
C934        C  0.70553510  0.71414006  0.44088629    -0.21500
C935        C  0.67113699  0.71340146  0.44036311    -0.09600
C936        C  0.65486388  0.71612289  0.41002852     0.29300
F937        F  0.62171651  0.71548433  0.40801421    -0.20100
H938        H  0.65945783  0.72154598  0.35820120     0.17700
H939        H  0.71880080  0.71192201  0.46376208     0.17700
F940        F  0.75660553  0.71709333  0.41373918    -0.20100
C941        C  0.82576892  0.83729746  0.37896621    -0.21500
C942        C  0.82556285  0.80281985  0.37848282    -0.09600
C943        C  0.82961040  0.78602893  0.40852198     0.29300
C944        C  0.83301031  0.80336548  0.43792680    -0.21500
C945        C  0.83254295  0.83782911  0.43847659    -0.09600
C946        C  0.82915411  0.85462884  0.40840484     0.29300
F947        F  0.82841763  0.88785784  0.40718485    -0.20100
H948        H  0.82258527  0.85108759  0.35651880     0.17700
H949        H  0.83571661  0.78955934  0.46042945     0.17700
F950        F  0.82995441  0.75277108  0.40985576    -0.20100
C951        C  0.56419859  0.78720109  0.01699157    -0.21500
C952        C  0.53440458  0.78635081  0.03435434    -0.09600
C953        C  0.50497028  0.78716999  0.01622714     0.29300
C954        C  0.50553660  0.78826493  0.98195082    -0.21500
C955        C  0.53528094  0.78843890  0.96457121    -0.09600
C956        C  0.56476730  0.78823894  0.98266262     0.29300
F957        F  0.59431652  0.78848522  0.96742063    -0.20100
H958        H  0.58733374  0.78672661  0.02995595     0.17700
H959        H  0.48238360  0.78853643  0.96900586     0.17700
F960        F  0.47539735  0.78650610  0.03136465    -0.20100
C961        C  0.65501556  0.77192158  0.14023325    -0.21500
C962        C  0.65506479  0.76926102  0.17463108    -0.09600
C963        C  0.62483972  0.77227602  0.19118523     0.29300
C964        C  0.59559277  0.77651878  0.17367388    -0.21500
C965        C  0.59541884  0.77815934  0.13922982    -0.09600
C966        C  0.62578649  0.77642911  0.12273272     0.29300
F967        F  0.62748700  0.77844077  0.08959003    -0.20100
H968        H  0.67767352  0.76995748  0.12657935     0.17700
H969        H  0.57289960  0.77814208  0.18730335     0.17700
F970        F  0.62320718  0.77070380  0.22435864    -0.20100
C971        C  0.56345921  0.49595982  0.28037032    -0.21500
C972        C  0.53363857  0.51261100  0.27583053    -0.09600
C973        C  0.50461072  0.49434182  0.27246010     0.29300
C974        C  0.50574776  0.46033153  0.27229326    -0.21500
C975        C  0.53567996  0.44362787  0.27531086    -0.09600
C976        C  0.56459060  0.46178761  0.28016450     0.29300
F977        F  0.59402108  0.44679861  0.28419076    -0.20100
H978        H  0.58613613  0.50936391  0.28351171     0.17700
H979        H  0.48300192  0.44715191  0.26875283     0.17700
F980        F  0.47511987  0.50902087  0.26793923    -0.20100
C981        C  0.62080404  0.59960268  0.25061988    -0.21500
C982        C  0.59252829  0.61631228  0.26082029    -0.09600
C983        C  0.59422282  0.65018486  0.26702520     0.29300
C984        C  0.62390593  0.66661673  0.26408288    -0.21500
C985        C  0.65249643  0.64983420  0.25466051    -0.09600
C986        C  0.65048659  0.61613355  0.24726874     0.29300
F987        F  0.67708097  0.59890410  0.23713697    -0.20100
H988        H  0.61998031  0.57362581  0.24513994     0.17700
H989        H  0.62441922  0.69259369  0.26958242     0.17700
F990        F  0.56751469  0.66742341  0.27687957    -0.20100
C991        C  0.84281438  0.56653175  0.20960782    -0.21500
C992        C  0.85994422  0.59648943  0.21130199    -0.09600
C993        C  0.89441806  0.59556165  0.20874316     0.29300
C994        C  0.91096973  0.56566375  0.20510862    -0.21500
C995        C  0.89391253  0.53570514  0.20393988    -0.09600
C996        C  0.85939478  0.53659647  0.20592973     0.29300
F997        F  0.84141919  0.50863278  0.20470801    -0.20100
H998        H  0.81636165  0.56608936  0.21151398     0.17700
H999        H  0.93744521  0.56609793  0.20359734     0.17700
F1000       F  0.91249354  0.62342824  0.21026861    -0.20100
C1001       C  0.89502003  0.35466728  0.20873610    -0.21500
C1002       C  0.86060060  0.35416394  0.20762713    -0.09600
C1003       C  0.84392553  0.38387133  0.20150320     0.29300
C1004       C  0.86126905  0.41331086  0.19845302    -0.21500
C1005       C  0.89561520  0.41402363  0.20103745    -0.09600
C1006       C  0.91236872  0.38403704  0.20538939     0.29300
F1007       F  0.94551124  0.38288092  0.20743948    -0.20100
H1008       H  0.90872506  0.33235412  0.21316900     0.17700
H1009       H  0.84758220  0.43571315  0.19447363     0.17700
F1010       F  0.81078725  0.38479129  0.19890588    -0.20100
C1011       C  0.77941800  0.50651359  0.48266655    -0.21500
C1012       C  0.77061215  0.47774804  0.46601730    -0.09600
C1013       C  0.76207558  0.44964000  0.48407231     0.29300
C1014       C  0.76328184  0.45027386  0.51813254    -0.21500
C1015       C  0.77276553  0.47887296  0.53474980    -0.09600
C1016       C  0.78046908  0.50720743  0.51666388     0.29300
F1017       F  0.78986820  0.53542977  0.53156438    -0.20100
H1018       H  0.78613556  0.52849880  0.46939024     0.17700
H1019       H  0.75671038  0.42828837  0.53148238     0.17700
F1020       F  0.75228977  0.42162130  0.46901725    -0.20100
C1021       C  0.77253400  0.56691878  0.37898281    -0.21500
C1022       C  0.77576563  0.53709762  0.36200210    -0.09600
C1023       C  0.78076322  0.53755423  0.32785885     0.29300
C1024       C  0.78197062  0.56722120  0.31124483    -0.21500
C1025       C  0.77870189  0.59689063  0.32824340    -0.09600
C1026       C  0.77408093  0.59662760  0.36231553     0.29300
F1027       F  0.77023128  0.62494416  0.37940011    -0.20100
H1028       H  0.76860579  0.56736614  0.40521739     0.17700
H1029       H  0.78599401  0.56697626  0.28500019     0.17700
F1030       F  0.78496175  0.50956220  0.31036048    -0.20100
C1031       C  0.78373738  0.38862763  0.37899467    -0.21500
C1032       C  0.77381947  0.41715290  0.36257737    -0.09600
C1033       C  0.76547645  0.41550282  0.32921095     0.29300
C1034       C  0.76741466  0.38580189  0.31265630    -0.21500
C1035       C  0.77754796  0.35718375  0.32898542    -0.09600
C1036       C  0.78566157  0.35888932  0.36247507     0.29300
F1037       F  0.79547768  0.33200397  0.37945776    -0.20100
H1038       H  0.79041598  0.38933079  0.40466889     0.17700
H1039       H  0.76085428  0.38534548  0.28694672     0.17700
F1040       F  0.75482146  0.44232218  0.31261515    -0.20100
C1041       C  0.41426605  0.61740463  0.75555916    -0.21500
C1042       C  0.41496640  0.65153031  0.75114669    -0.09600
C1043       C  0.44536739  0.66766481  0.74931608     0.29300
C1044       C  0.47428316  0.64988098  0.75227158    -0.21500
C1045       C  0.47360104  0.61580598  0.75731740    -0.09600
C1046       C  0.44317333  0.59964230  0.75863229     0.29300
F1047       F  0.44101799  0.56675486  0.76298684    -0.20100
H1048       H  0.39123603  0.60428809  0.75682747     0.17700
H1049       H  0.49725838  0.66309565  0.75123765     0.17700
F1050       F  0.44738140  0.70070615  0.74574305    -0.20100
C1051       C  0.44289600  0.76869373  0.81010504    -0.21500
C1052       C  0.41308392  0.76850624  0.82745329    -0.09600
C1053       C  0.41414087  0.77286576  0.86172127     0.29300
C1054       C  0.44415530  0.77738222  0.87783353    -0.21500
C1055       C  0.47394661  0.77755818  0.86041832    -0.09600
C1056       C  0.47282910  0.77305002  0.82617172     0.29300
F1057       F  0.50056790  0.77244072  0.80789649    -0.20100
H1058       H  0.44327234  0.76509993  0.78382059     0.17700
H1059       H  0.44395895  0.78063005  0.90416092     0.17700
F1060       F  0.38631360  0.77259038  0.87990043    -0.20100
C1061       C  0.01634664  0.50850770  0.79671863    -0.21500
C1062       C  0.99891553  0.47916043  0.80146153    -0.09600
C1063       C  0.01662112  0.45047603  0.80910452     0.29300
C1064       C  0.05086662  0.45118218  0.81078709    -0.21500
C1065       C  0.06834401  0.48038550  0.80507726    -0.09600
C1066       C  0.05051171  0.50923929  0.79847147     0.29300
F1067       F  0.06589146  0.53815888  0.79274605    -0.20100
H1068       H  0.00359343  0.53105980  0.79091587     0.17700
H1069       H  0.06370812  0.42862110  0.81637338     0.17700
F1070       F  0.00104894  0.42167641  0.81502208    -0.20100
C1071       C  0.22402940  0.57230268  0.80183950    -0.21500
C1072       C  0.20762155  0.60046297  0.79030798    -0.09600
C1073       C  0.17384936  0.59798567  0.78353204     0.29300
C1074       C  0.15723713  0.56826781  0.78797439    -0.21500
C1075       C  0.17367080  0.53999899  0.79901680    -0.09600
C1076       C  0.20735966  0.54247650  0.80622449     0.29300
F1077       F  0.22423553  0.51624044  0.81782337    -0.20100
H1078       H  0.24994606  0.57329167  0.80742636     0.17700
H1079       H  0.13143034  0.56728117  0.78192540     0.17700
F1080       F  0.15692443  0.62390475  0.77133809    -0.20100
C1081       C  0.30309492  0.54004574  0.67116204    -0.21500
C1082       C  0.29919038  0.53969961  0.63704004    -0.09600
C1083       C  0.29078222  0.56892801  0.62072638     0.29300
C1084       C  0.28705787  0.59794247  0.63834895    -0.21500
C1085       C  0.29167403  0.59842487  0.67244356    -0.09600
C1086       C  0.29942680  0.56895465  0.68877705     0.29300
F1087       F  0.30362951  0.56777722  0.72176168    -0.20100
H1088       H  0.30950230  0.51792374  0.68437570     0.17700
H1089       H  0.28090960  0.62012737  0.62511276     0.17700
F1090       F  0.28581424  0.56961118  0.58786552    -0.20100
C1091       C  0.23146274  0.80472292  0.56104979    -0.21500
C1092       C  0.23405828  0.83910858  0.55991411    -0.09600
C1093       C  0.23960036  0.85598739  0.58964446     0.29300
C1094       C  0.24371120  0.83881067  0.61910316    -0.21500
C1095       C  0.24222463  0.80437170  0.62010603    -0.09600
C1096       C  0.23523586  0.78754216  0.59063191     0.29300
F1097       F  0.23208588  0.75441383  0.59014134    -0.20100
H1098       H  0.22666183  0.79091211  0.53890535     0.17700
H1099       H  0.24884380  0.85267660  0.64113861     0.17700
F1100       F  0.24185378  0.88917450  0.59046043    -0.20100
C1101       C  0.51568986  0.69414651  0.47020527    -0.21500
C1102       C  0.49876426  0.69350540  0.50013896    -0.09600
C1103       C  0.51667626  0.68929400  0.52935624     0.29300
C1104       C  0.55078966  0.68881043  0.52859470    -0.21500
C1105       C  0.56775886  0.69249285  0.49887447    -0.09600
C1106       C  0.54977814  0.69362922  0.46945384     0.29300
F1107       F  0.56481820  0.69599498  0.43993590    -0.20100
H1108       H  0.50265802  0.69663073  0.44722834     0.17700
H1109       H  0.56386515  0.68693739  0.55160415     0.17700
F1110       F  0.50154958  0.68694328  0.55887723    -0.20100
C1111       C  0.41367086  0.70912699  0.59092768    -0.21500
C1112       C  0.39807057  0.71776305  0.56140922    -0.09600
C1113       C  0.36594645  0.73043043  0.56245139     0.29300
C1114       C  0.34965699  0.73330754  0.59220207    -0.21500
C1115       C  0.36500168  0.72395103  0.62138627    -0.09600
C1116       C  0.39730189  0.71217456  0.62074526     0.29300
F1117       F  0.41241711  0.70213159  0.64864835    -0.20100
H1118       H  0.43830677  0.69927149  0.59096650     0.17700
H1119       H  0.32485180  0.74280491  0.59243920     0.17700
F1120       F  0.34998296  0.73995838  0.53489111    -0.20100
C1121       C  0.41391454  0.34251272  0.77107949    -0.21500
C1122       C  0.41414622  0.31052240  0.75812827    -0.09600
C1123       C  0.44448246  0.29549018  0.75144693     0.29300
C1124       C  0.47361458  0.31205361  0.75767623    -0.21500
C1125       C  0.47342950  0.34389766  0.77077595    -0.09600
C1126       C  0.44313673  0.35904058  0.77749619     0.29300
F1127       F  0.44150961  0.38953186  0.79076226    -0.20100
H1128       H  0.39105932  0.35472481  0.77683232     0.17700
H1129       H  0.49643950  0.29970760  0.75212150     0.17700
F1130       F  0.44631930  0.26456042  0.73932358    -0.20100
C1131       C  0.47325117  0.18986196  0.83074474    -0.21500
C1132       C  0.47317359  0.17873984  0.86331291    -0.09600
C1133       C  0.44268886  0.17168585  0.87806716     0.29300
C1134       C  0.41325094  0.17688028  0.86091496    -0.21500
C1135       C  0.41339000  0.18863056  0.82847882    -0.09600
C1136       C  0.44402202  0.19469677  0.81352893     0.29300
F1137       F  0.44604383  0.20621413  0.78240691    -0.20100
H1138       H  0.49609220  0.19554634  0.81852841     0.17700
H1139       H  0.39028763  0.17159030  0.87308474     0.17700
F1140       F  0.44116851  0.15940596  0.90892324    -0.20100
C1141       C  0.30271664  0.39013621  0.62038587    -0.21500
C1142       C  0.30629180  0.41981094  0.63751168    -0.09600
C1143       C  0.30678577  0.41919796  0.67201400     0.29300
C1144       C  0.30230980  0.38980266  0.68876825    -0.21500
C1145       C  0.29767415  0.36022943  0.67172291    -0.09600
C1146       C  0.29861347  0.36058544  0.63721262     0.29300
F1147       F  0.29602562  0.33246292  0.61961356    -0.20100
H1148       H  0.30268588  0.38975771  0.59385586     0.17700
H1149       H  0.30227852  0.39035836  0.71529965     0.17700
F1150       F  0.31183126  0.44687184  0.68980273    -0.20100
C1151       C  0.17204638  0.35836488  0.79566976    -0.21500
C1152       C  0.20646531  0.35777217  0.79432341    -0.09600
C1153       C  0.22344084  0.38774269  0.79810998     0.29300
C1154       C  0.20638781  0.41727414  0.80176301    -0.21500
C1155       C  0.17200240  0.41805853  0.80196447    -0.09600
C1156       C  0.15495539  0.38797587  0.79947725     0.29300
F1157       F  0.12172543  0.38695256  0.79984578    -0.20100
H1158       H  0.15813999  0.33592404  0.79295213     0.17700
H1159       H  0.22035913  0.43972484  0.80398280     0.17700
F1160       F  0.25666304  0.38892291  0.79774214    -0.20100
C1161       C  0.23022226  0.99658647  0.47088547    -0.21500
C1162       C  0.23040497  0.01346822  0.50097812    -0.09600
C1163       C  0.23056833  0.99491728  0.53012416     0.29300
C1164       C  0.23038452  0.96065862  0.52899228    -0.21500
C1165       C  0.23012057  0.94375862  0.49894734    -0.09600
C1166       C  0.23014438  0.96227143  0.46975057     0.29300
F1167       F  0.23026325  0.94748306  0.43996238    -0.20100
H1168       H  0.23025785  0.00992620  0.44794805     0.17700
H1169       H  0.23046426  0.94737517  0.55195300     0.17700
F1170       F  0.23099856  0.00960323  0.55993204    -0.20100
C1171       C  0.23386251  0.15261784  0.56301740    -0.21500
C1172       C  0.23655567  0.11821947  0.56245003    -0.09600
C1173       C  0.24343808  0.10185056  0.59212431     0.29300
C1174       C  0.24787511  0.11954723  0.62119002    -0.21500
C1175       C  0.24571296  0.15399703  0.62166213    -0.09600
C1176       C  0.23845024  0.17033492  0.59206668     0.29300
F1177       F  0.23594007  0.20350026  0.59091447    -0.20100
H1178       H  0.22850092  0.16606047  0.54077605     0.17700
H1179       H  0.25371051  0.10610222  0.64331881     0.17700
F1180       F  0.24692337  0.06878310  0.59316639    -0.20100
C1181       C  0.24184440  0.16926675  0.41009007    -0.21500
C1182       C  0.24508111  0.15178483  0.38049925    -0.09600
C1183       C  0.24276779  0.11728234  0.38153874     0.29300
C1184       C  0.23802941  0.10103101  0.41138851    -0.21500
C1185       C  0.23565116  0.11850447  0.44105741    -0.09600
C1186       C  0.23720036  0.15301666  0.43991764     0.29300
F1187       F  0.23470299  0.17132332  0.46757274    -0.20100
H1188       H  0.24338730  0.19577241  0.41038471     0.17700
H1189       H  0.23690999  0.07450275  0.41121043     0.17700
F1190       F  0.24579920  0.09895112  0.35394435    -0.20100
C1191       C  0.51860640  0.26170029  0.53080304    -0.21500
C1192       C  0.50156029  0.25758425  0.50117137    -0.09600
C1193       C  0.51930311  0.25644115  0.47162232     0.29300
C1194       C  0.55328522  0.25716551  0.47209768    -0.21500
C1195       C  0.57039022  0.25895321  0.50184918    -0.09600
C1196       C  0.55270211  0.26246669  0.53125787     0.29300
F1197       F  0.56809168  0.26567097  0.56057716    -0.20100
H1198       H  0.50564364  0.26336264  0.55389107     0.17700
H1199       H  0.56613687  0.25497307  0.44900176     0.17700
F1200       F  0.50417265  0.25335851  0.44218296    -0.20100
C1201       C  0.41606187  0.23617463  0.59106487    -0.21500
C1202       C  0.39916322  0.24471256  0.56234503    -0.09600
C1203       C  0.36547132  0.25141202  0.56390580     0.29300
C1204       C  0.34901993  0.24920521  0.59360335    -0.21500
C1205       C  0.36566846  0.24018777  0.62240706    -0.09600
C1206       C  0.39955098  0.23374352  0.62086601     0.29300
F1207       F  0.41683564  0.22496980  0.64790330    -0.20100
H1208       H  0.44204777  0.23081981  0.59038771     0.17700
H1209       H  0.32302294  0.25450811  0.59383733     0.17700
F1210       F  0.34839468  0.26068493  0.53690654    -0.20100
C1211       C  0.41539623  0.24162005  0.41233700    -0.21500
C1212       C  0.39875773  0.23745788  0.44222286    -0.09600
C1213       C  0.36514404  0.22966428  0.44168760     0.29300
C1214       C  0.34845169  0.22780146  0.41197760    -0.21500
C1215       C  0.36494113  0.23289799  0.38226701    -0.09600
C1216       C  0.39877786  0.23919860  0.38261613     0.29300
F1217       F  0.41562930  0.24422552  0.35438251    -0.20100
H1218       H  0.44128022  0.24735404  0.41182649     0.17700
H1219       H  0.32251919  0.22215932  0.41221321     0.17700
F1220       F  0.34821336  0.22380307  0.46969034    -0.20100
C1221       C  0.41344050  0.61832084  0.26917968    -0.21500
C1222       C  0.41399291  0.65135924  0.25978764    -0.09600
C1223       C  0.44405823  0.66681245  0.25358150     0.29300
C1224       C  0.47311343  0.64935618  0.25679677    -0.21500
C1225       C  0.47280640  0.61621363  0.26624965    -0.09600
C1226       C  0.44255836  0.60082912  0.27264110     0.29300
F1227       F  0.44087986  0.56911523  0.28253518    -0.20100
H1228       H  0.39042763  0.60616641  0.27438565     0.17700
H1229       H  0.49587073  0.66187234  0.25142796     0.17700
F1230       F  0.44537091  0.69852166  0.24348912    -0.20100
C1231       C  0.44167733  0.77741780  0.18980649    -0.21500
C1232       C  0.41280284  0.76926223  0.17272825    -0.09600
C1233       C  0.41479120  0.76541657  0.13840491     0.29300
C1234       C  0.44472353  0.76945301  0.12200433    -0.21500
C1235       C  0.47364933  0.77715466  0.13915115    -0.09600
C1236       C  0.47163027  0.78136410  0.17338821     0.29300
F1237       F  0.49849464  0.78952465  0.19118848    -0.20100
H1238       H  0.44121250  0.78063766  0.21613701     0.17700
H1239       H  0.44528463  0.76581388  0.09573087     0.17700
F1240       F  0.38811547  0.75670375  0.12056806    -0.20100
C1241       C  0.41371109  0.72165681  0.41180013    -0.21500
C1242       C  0.39633630  0.71673381  0.44110454    -0.09600
C1243       C  0.36187003  0.71644570  0.44024497     0.29300
C1244       C  0.34540269  0.72045515  0.41063344    -0.21500
C1245       C  0.36272768  0.72488282  0.38118021    -0.09600
C1246       C  0.39718354  0.72583500  0.38212930     0.29300
F1247       F  0.41505648  0.72996550  0.35441036    -0.20100
H1248       H  0.44023244  0.72226938  0.41176921     0.17700
H1249       H  0.31887779  0.71978508  0.41084510     0.17700
F1250       F  0.34387960  0.71143913  0.46776304    -0.20100
C1251       C  0.23427524  0.78832706  0.40640055    -0.21500
C1252       C  0.23687110  0.80596347  0.37682091    -0.09600
C1253       C  0.23363357  0.84035451  0.37798710     0.29300
C1254       C  0.23029669  0.85649657  0.40813492    -0.21500
C1255       C  0.22966695  0.83891781  0.43788467    -0.09600
C1256       C  0.23060880  0.80441416  0.43645378     0.29300
F1257       F  0.22874610  0.78596218  0.46405017    -0.20100
H1258       H  0.23597948  0.76182616  0.40655609     0.17700
H1259       H  0.22893519  0.88300891  0.40809455     0.17700
F1260       F  0.23457298  0.85864561  0.35021750    -0.20100
C1261       C  0.05224274  0.44923494  0.20873447    -0.21500
C1262       C  0.06921768  0.47765627  0.19915090    -0.09600
C1263       C  0.05084585  0.50537368  0.18962149     0.29300
C1264       C  0.01653069  0.50451118  0.18992685    -0.21500
C1265       C  0.99960506  0.47610573  0.19960229    -0.09600
C1266       C  0.01798158  0.44840415  0.20912797     0.29300
F1267       F  0.00303887  0.42069456  0.21981804    -0.20100
H1268       H  0.06549537  0.42758824  0.21654869     0.17700
H1269       H  0.00317521  0.52616066  0.18229715     0.17700
F1270       F  0.06585155  0.53327722  0.17954905    -0.20100
C1271       C  0.20836348  0.53966823  0.20206544    -0.21500
C1272       C  0.17388951  0.53934839  0.20146744    -0.09600
C1273       C  0.15729984  0.56971346  0.20264232     0.29300
C1274       C  0.17470960  0.59909827  0.20623742    -0.21500
C1275       C  0.20912407  0.59931421  0.20824805    -0.09600
C1276       C  0.22581073  0.56911580  0.20509874     0.29300
F1277       F  0.25903393  0.56772914  0.20532538    -0.20100
H1278       H  0.22205546  0.51696873  0.20054858     0.17700
H1279       H  0.16097281  0.62174595  0.20811418     0.17700
F1280       F  0.12414532  0.57127409  0.20102482    -0.20100
C1281       C  0.15693659  0.38783897  0.20884809    -0.21500
C1282       C  0.17419959  0.41771094  0.20724806    -0.09600
C1283       C  0.20866166  0.41671600  0.20928013     0.29300
C1284       C  0.22509487  0.38678393  0.21264216    -0.21500
C1285       C  0.20786950  0.35690950  0.21441310    -0.09600
C1286       C  0.17338968  0.35787491  0.21255082     0.29300
F1287       F  0.15532136  0.33004828  0.21491771    -0.20100
H1288       H  0.13044485  0.38755339  0.20760263     0.17700
H1289       H  0.25156575  0.38721117  0.21430864     0.17700
F1290       F  0.22676883  0.44459497  0.20843798    -0.20100
C1291       C  0.31940795  0.50982213  0.48213765    -0.21500
C1292       C  0.32028672  0.47993788  0.46506568    -0.09600
C1293       C  0.32343066  0.45055307  0.48291986     0.29300
C1294       C  0.32284165  0.45110035  0.51704836    -0.21500
C1295       C  0.31949317  0.48082706  0.53410066    -0.09600
C1296       C  0.31904411  0.51040984  0.51622145     0.29300
F1297       F  0.31713506  0.54000259  0.53131856    -0.20100
H1298       H  0.31766962  0.53293391  0.46918056     0.17700
H1299       H  0.32406823  0.42798607  0.53004824     0.17700
F1300       F  0.32606913  0.42110936  0.46764759    -0.20100
C1301       C  0.30293704  0.57000878  0.38026493    -0.21500
C1302       C  0.29742140  0.54024802  0.36368680    -0.09600
C1303       C  0.28686718  0.54111872  0.33081634     0.29300
C1304       C  0.28360447  0.57094787  0.31468863    -0.21500
C1305       C  0.29005878  0.60045811  0.33101461    -0.09600
C1306       C  0.29898691  0.59992224  0.36420115     0.29300
F1307       F  0.30509749  0.62814845  0.38074804    -0.20100
H1308       H  0.31065766  0.57024683  0.40564472     0.17700
H1309       H  0.27596229  0.57097146  0.28925361     0.17700
F1310       F  0.27961794  0.51337154  0.31400183    -0.20100
C1311       C  0.28987156  0.38889093  0.31299510    -0.21500
C1312       C  0.29045544  0.35929467  0.33052577    -0.09600
C1313       C  0.29391349  0.36010131  0.36478085     0.29300
C1314       C  0.29753380  0.39003014  0.38090459    -0.21500
C1315       C  0.29766448  0.41966401  0.36328044    -0.09600
C1316       C  0.29335599  0.41876255  0.32904646     0.29300
F1317       F  0.29310756  0.44650988  0.31072662    -0.20100
H1318       H  0.28687585  0.38897967  0.28661598     0.17700
H1319       H  0.30056395  0.38986950  0.40725774     0.17700
F1320       F  0.29497802  0.33204099  0.38263884    -0.20100
C1321       C  0.09630331  0.27340785  0.32627338    -0.21500
C1322       C  0.09646379  0.27826640  0.36035975    -0.09600
C1323       C  0.12696334  0.28046730  0.37650097     0.29300
C1324       C  0.15620860  0.27635866  0.35913760    -0.21500
C1325       C  0.15598096  0.27014201  0.32529443    -0.09600
C1326       C  0.12549870  0.26946768  0.30886832     0.29300
F1327       F  0.12349891  0.26409907  0.27609031    -0.20100
H1328       H  0.07343149  0.27188389  0.31292689     0.17700
H1329       H  0.17910421  0.27744079  0.37249474     0.17700
F1330       F  0.12884201  0.28614916  0.40917027    -0.20100
C1331       C  0.94543332  0.27446592  0.37760203    -0.21500
C1332       C  0.97521381  0.27593430  0.36027812    -0.09600
C1333       C  0.97418600  0.27363984  0.32580205     0.29300
C1334       C  0.94432192  0.26934745  0.30949459    -0.21500
C1335       C  0.91459780  0.26702434  0.32687364    -0.09600
C1336       C  0.91557595  0.26993037  0.36129534     0.29300
F1337       F  0.88787589  0.26760841  0.37951695    -0.20100
H1338       H  0.94516447  0.27615718  0.40407403     0.17700
H1339       H  0.94469635  0.26721366  0.28305182     0.17700
F1340       F  0.00198295  0.27483110  0.30760159    -0.20100
C1341       C  0.12650195  0.16348424  0.24465232    -0.21500
C1342       C  0.15620005  0.14622232  0.24336212    -0.09600
C1343       C  0.15575767  0.11211373  0.23839056     0.29300
C1344       C  0.12597879  0.09598463  0.23367356    -0.21500
C1345       C  0.09621603  0.11346510  0.23414369    -0.09600
C1346       C  0.09683168  0.14743244  0.24024867     0.29300
F1347       F  0.06895522  0.16552471  0.24148729    -0.20100
H1348       H  0.12617687  0.18970319  0.24895440     0.17700
H1349       H  0.12634437  0.06979088  0.22935511     0.17700
F1350       F  0.18398013  0.09451382  0.23694678    -0.20100
C1351       C  0.97599714  0.14616020  0.24250776    -0.21500
C1352       C  0.97577037  0.11335767  0.23189624    -0.09600
C1353       C  0.94539714  0.09754704  0.22713467     0.29300
C1354       C  0.91617686  0.11429408  0.23309155    -0.21500
C1355       C  0.91664015  0.14710329  0.24326110    -0.09600
C1356       C  0.94681231  0.16294552  0.24800404     0.29300
F1357       F  0.94813560  0.19460257  0.25826625    -0.20100
H1358       H  0.99881125  0.15905652  0.24655785     0.17700
H1359       H  0.89311424  0.10188020  0.22879456     0.17700
F1360       F  0.94366262  0.06612576  0.21632898    -0.20100
C1361       C  0.91431213  0.68183782  0.35911516    -0.21500
C1362       C  0.91459317  0.68588984  0.32482085    -0.09600
C1363       C  0.94515398  0.68475483  0.30864751     0.29300
C1364       C  0.97425827  0.68065113  0.32638447    -0.21500
C1365       C  0.97405738  0.67736896  0.36071420    -0.09600
C1366       C  0.94347827  0.67754461  0.37685550     0.29300
F1367       F  0.94151162  0.67395309  0.40985199    -0.20100
H1368       H  0.89141687  0.68242272  0.37249146     0.17700
H1369       H  0.99714164  0.68042835  0.31298776     0.17700
F1370       F  0.94728581  0.68810011  0.27563940    -0.20100
C1371       C  0.12550466  0.67645894  0.37711956    -0.21500
C1372       C  0.09541954  0.67669470  0.36022220    -0.09600
C1373       C  0.09602928  0.68091086  0.32591142     0.29300
C1374       C  0.12564454  0.68606561  0.30947276    -0.21500
C1375       C  0.15562672  0.68701606  0.32646756    -0.09600
C1376       C  0.15521167  0.68150385  0.36061473     0.29300
F1377       F  0.18333721  0.68143875  0.37836128    -0.20100
H1378       H  0.12613453  0.67294721  0.40340384     0.17700
H1379       H  0.12486257  0.68993112  0.28323654     0.17700
F1380       F  0.06804199  0.68074038  0.30797751    -0.20100
C1381       C  0.06487394  0.96011311  0.20643406    -0.21500
C1382       C  0.03482362  0.94359977  0.20350012    -0.09600
C1383       C  0.00596386  0.96203857  0.19944748     0.29300
C1384       C  0.00703384  0.99613796  0.20109354    -0.21500
C1385       C  0.03678264  0.01252806  0.20666057    -0.09600
C1386       C  0.06598115  0.99416214  0.20798501     0.29300
F1387       F  0.09556106  0.00869776  0.21236495    -0.20100
H1388       H  0.08763700  0.94670592  0.20902176     0.17700
H1389       H  0.98424575  0.00959887  0.19912905     0.17700
F1390       F  0.97651769  0.94733049  0.19489482    -0.20100
C1391       C  0.97410686  0.80799615  0.23143935    -0.21500
C1392       C  0.97333459  0.84166269  0.22410897    -0.09600
C1393       C  0.94282744  0.85785988  0.22294829     0.29300
C1394       C  0.91396371  0.84052584  0.22894059    -0.21500
C1395       C  0.91492792  0.80682963  0.23581385    -0.09600
C1396       C  0.94534532  0.79071294  0.23713998     0.29300
F1397       F  0.94745777  0.75827415  0.24435823    -0.20100
H1398       H  0.99706162  0.79474479  0.23276705     0.17700
H1399       H  0.89076025  0.85335675  0.22750705     0.17700
F1400       F  0.94061928  0.89028217  0.21585210    -0.20100
C1401       C  0.12212313  0.85835621  0.22854390    -0.21500
C1402       C  0.09323680  0.84063017  0.22250535    -0.09600
C1403       C  0.09421938  0.80617555  0.22290717     0.29300
C1404       C  0.12335455  0.78999016  0.22984979    -0.21500
C1405       C  0.15225271  0.80763191  0.23611164    -0.09600
C1406       C  0.15141249  0.84212083  0.23526547     0.29300
F1407       F  0.17883522  0.86026141  0.24026126    -0.20100
H1408       H  0.12207682  0.88491361  0.22837214     0.17700
H1409       H  0.12320987  0.76342821  0.23002146     0.17700
F1410       F  0.06727995  0.78792563  0.21604576    -0.20100
C1411       C  0.06399194  0.67034083  0.51824607    -0.21500
C1412       C  0.03418008  0.67166513  0.53554874    -0.09600
C1413       C  0.00478932  0.67165324  0.51734833     0.29300
C1414       C  0.00545137  0.67117657  0.48303220    -0.21500
C1415       C  0.03525485  0.67055003  0.46570384    -0.09600
C1416       C  0.06465429  0.66974813  0.48391060     0.29300
F1417       F  0.09423604  0.66868569  0.46878109    -0.20100
H1418       H  0.08709872  0.67007300  0.53127210     0.17700
H1419       H  0.98233834  0.67159668  0.47003088     0.17700
F1420       F  0.97520006  0.67241692  0.53246536    -0.20100
C1421       C  0.09711349  0.67394862  0.67368974    -0.21500
C1422       C  0.09547648  0.68026839  0.63985064    -0.09600
C1423       C  0.12450594  0.68947617  0.62349789     0.29300
C1424       C  0.15402091  0.69268262  0.64068735    -0.21500
C1425       C  0.15552693  0.68719257  0.67465262    -0.09600
C1426       C  0.12665498  0.67728653  0.69093851     0.29300
F1427       F  0.12673955  0.67098751  0.72359484    -0.20100
H1428       H  0.07538228  0.66654200  0.68697346     0.17700
H1429       H  0.17554334  0.70071877  0.62742470     0.17700
F1430       F  0.12430159  0.69690087  0.59109476    -0.20100
C1431       C  0.94392033  0.68388918  0.62289499    -0.21500
C1432       C  0.97360508  0.68167652  0.64042488    -0.09600
C1433       C  0.97222545  0.68338223  0.67490682     0.29300
C1434       C  0.94219867  0.68761003  0.69102879    -0.21500
C1435       C  0.91254103  0.69033518  0.67350834    -0.09600
C1436       C  0.91386393  0.68824306  0.63903096     0.29300
F1437       F  0.88631444  0.69104749  0.62062445    -0.20100
H1438       H  0.94386336  0.68276307  0.59639676     0.17700
H1439       H  0.94237609  0.68911408  0.71751466     0.17700
F1440       F  0.99981685  0.68122581  0.69333521    -0.20100
C1441       C  0.15419470  0.84428972  0.75000375    -0.21500
C1442       C  0.15394233  0.81070792  0.75768403    -0.09600
C1443       C  0.12376780  0.79534445  0.76441404     0.29300
C1444       C  0.09461440  0.81272608  0.76106879    -0.21500
C1445       C  0.09475195  0.84569606  0.75112924    -0.09600
C1446       C  0.12500645  0.86170592  0.74677970     0.29300
F1447       F  0.12665751  0.89381338  0.73819613    -0.20100
H1448       H  0.17700961  0.85702340  0.74541372     0.17700
H1449       H  0.07180967  0.79988689  0.76538038     0.17700
F1450       F  0.12202975  0.76319933  0.77290649    -0.20100
C1451       C  0.94525376  0.85905907  0.74104171    -0.21500
C1452       C  0.97491208  0.84156681  0.74008471    -0.09600
C1453       C  0.97422174  0.80714009  0.74242515     0.29300
C1454       C  0.94442922  0.79082170  0.74578313    -0.21500
C1455       C  0.91481176  0.80836690  0.74680428    -0.09600
C1456       C  0.91551368  0.84277455  0.74448115     0.29300
F1457       F  0.88762930  0.86087230  0.74615210    -0.20100
H1458       H  0.94496006  0.88556949  0.73964973     0.17700
H1459       H  0.94456807  0.76428689  0.74705954     0.17700
F1460       F  0.00212293  0.78906899  0.74102848    -0.20100
C1461       C  0.06403926  0.27980708  0.51795533    -0.21500
C1462       C  0.03412396  0.27811121  0.53497369    -0.09600
C1463       C  0.00487023  0.27704715  0.51657332     0.29300
C1464       C  0.00576585  0.27785958  0.48231568    -0.21500
C1465       C  0.03567171  0.27953716  0.46530046    -0.09600
C1466       C  0.06494225  0.28039757  0.48368729     0.29300
F1467       F  0.09463526  0.28163696  0.46883933    -0.20100
H1468       H  0.08703809  0.28053680  0.53115526     0.17700
H1469       H  0.98277127  0.27697333  0.46911824     0.17700
F1470       F  0.97520614  0.27499599  0.53141341    -0.20100
C1471       C  0.12427655  0.27039038  0.62324433    -0.21500
C1472       C  0.09460776  0.27507712  0.64018265    -0.09600
C1473       C  0.09577255  0.27780352  0.67462708     0.29300
C1474       C  0.12552580  0.27450222  0.69145918    -0.21500
C1475       C  0.15506758  0.26872586  0.67459500    -0.09600
C1476       C  0.15407373  0.26729342  0.64006021     0.29300
F1477       F  0.18167645  0.26187158  0.62233991    -0.20100
H1478       H  0.12446212  0.26836166  0.59679385     0.17700
H1479       H  0.12526659  0.27614109  0.71794004     0.17700
F1480       F  0.06823147  0.28359925  0.69230757    -0.20100
C1481       C  0.94300910  0.27426232  0.62284185    -0.21500
C1482       C  0.97304353  0.27200029  0.63973634    -0.09600
C1483       C  0.97217112  0.26692968  0.67388638     0.29300
C1484       C  0.94228932  0.26390208  0.69033866    -0.21500
C1485       C  0.91222923  0.26563205  0.67348713    -0.09600
C1486       C  0.91299699  0.27113877  0.63935933     0.29300
F1487       F  0.88489148  0.27326405  0.62171733    -0.20100
H1488       H  0.94262423  0.27827501  0.59662293     0.17700
H1489       H  0.94289821  0.25949244  0.71649259     0.17700
F1490       F  0.00012902  0.26411486  0.69163207    -0.20100
C1491       C  0.06183665  0.96218577  0.71603431    -0.21500
C1492       C  0.03277384  0.94517159  0.72295646    -0.09600
C1493       C  0.00332514  0.96286983  0.72619287     0.29300
C1494       C  0.00360885  0.99692247  0.72509922    -0.21500
C1495       C  0.03309245  0.01407560  0.72083463    -0.09600
C1496       C  0.06205895  0.99632861  0.71468428     0.29300
F1497       F  0.09082279  0.01175166  0.70839206    -0.20100
H1498       H  0.08467323  0.94911346  0.71252399     0.17700
H1499       H  0.98079102  0.00980064  0.72934602     0.17700
F1500       F  0.97445397  0.94765889  0.73251011    -0.20100
C1501       C  0.15379303  0.11574036  0.74580774    -0.21500
C1502       C  0.15359669  0.15004000  0.74875199    -0.09600
C1503       C  0.12353742  0.16691518  0.74793731     0.29300
C1504       C  0.09441681  0.14972491  0.74424746    -0.21500
C1505       C  0.09451223  0.11545461  0.74119556    -0.09600
C1506       C  0.12458522  0.09849794  0.74206459     0.29300
F1507       F  0.12598322  0.06533304  0.73965121    -0.20100
H1508       H  0.17660796  0.10216778  0.74642656     0.17700
H1509       H  0.07174082  0.16349109  0.74338888     0.17700
F1510       F  0.12214854  0.20013641  0.74965168    -0.20100
C1511       C  0.94486705  0.09785869  0.74692341    -0.21500
C1512       C  0.97445728  0.11545380  0.74746800    -0.09600
C1513       C  0.97364444  0.14942187  0.75364476     0.29300
C1514       C  0.94375889  0.16542320  0.75740836    -0.21500
C1515       C  0.91410432  0.14804142  0.75533843    -0.09600
C1516       C  0.91498806  0.11385599  0.75088926     0.29300
F1517       F  0.88708869  0.09578994  0.74998819    -0.20100
H1518       H  0.94466656  0.07160843  0.74292742     0.17700
H1519       H  0.94394397  0.19174220  0.76099908     0.17700
F1520       F  0.00147905  0.16754117  0.75529611    -0.20100
C1521       C  0.39670945  0.09945427  0.28941236    -0.21500
C1522       C  0.36252848  0.10033778  0.29360515    -0.09600
C1523       C  0.34622232  0.07101418  0.30198049     0.29300
C1524       C  0.36359798  0.04157043  0.30467257    -0.21500
C1525       C  0.39756971  0.04045990  0.29920282    -0.09600
C1526       C  0.41408339  0.06998452  0.29208887     0.29300
F1527       F  0.44679887  0.07037910  0.28619664    -0.20100
H1528       H  0.41002422  0.12143867  0.28279523     0.17700
H1529       H  0.35022113  0.01943826  0.31063913     0.17700
F1530       F  0.31337215  0.07047500  0.30712028    -0.20100
C1531       C  0.36015165  0.91986440  0.29396444    -0.21500
C1532       C  0.39464605  0.91935353  0.29352311    -0.09600
C1533       C  0.41050674  0.88884569  0.28987424     0.29300
C1534       C  0.39238358  0.85999935  0.28654055    -0.21500
C1535       C  0.35793790  0.86044484  0.28663195    -0.09600
C1536       C  0.34195196  0.89090168  0.29062806     0.29300
F1537       F  0.30876469  0.89296165  0.29120888    -0.20100
H1538       H  0.34705891  0.94278840  0.29685291     0.17700
H1539       H  0.40562370  0.83720486  0.28333143     0.17700
F1540       F  0.44362718  0.88657234  0.28897934    -0.20100
C1541       C  0.27051839  0.03901913  0.16957044    -0.21500
C1542       C  0.26408973  0.03989571  0.13577258    -0.09600
C1543       C  0.26409297  0.07042222  0.11950489     0.29300
C1544       C  0.26989996  0.09922904  0.13702497    -0.21500
C1545       C  0.27563890  0.09817437  0.17090420    -0.09600
C1546       C  0.27624591  0.06770847  0.18698657     0.29300
F1547       F  0.28265191  0.06547345  0.21956130    -0.20100
H1548       H  0.27106881  0.01603987  0.18282932     0.17700
H1549       H  0.26916565  0.12246068  0.12416617     0.17700
F1550       F  0.25831035  0.07271610  0.08683889    -0.20100
C1551       C  0.25594674  0.88965064  0.11984400    -0.21500
C1552       C  0.26010340  0.91961974  0.13648293    -0.09600
C1553       C  0.26983010  0.91909419  0.16959905     0.29300
C1554       C  0.27555095  0.88938417  0.18530880    -0.21500
C1555       C  0.27167063  0.85956188  0.16862676    -0.09600
C1556       C  0.26168039  0.85984358  0.13571373     0.29300
F1557       F  0.25633010  0.83142509  0.11924511    -0.20100
H1558       H  0.24823225  0.88916625  0.09446892     0.17700
H1559       H  0.28308562  0.88972398  0.21076813     0.17700
F1560       F  0.27408101  0.94711879  0.18702578    -0.20100
C1561       C  0.70577408  0.04032974  0.70025839    -0.21500
C1562       C  0.67157161  0.03913178  0.70383417    -0.09600
C1563       C  0.65479898  0.06850457  0.71137283     0.29300
C1564       C  0.67196723  0.09794862  0.71543743    -0.21500
C1565       C  0.70623697  0.09906785  0.71228587    -0.09600
C1566       C  0.72294371  0.06976210  0.70436839     0.29300
F1567       F  0.75597079  0.06929032  0.70059436    -0.20100
H1568       H  0.71944127  0.01835348  0.69430310     0.17700
H1569       H  0.65832662  0.11981731  0.72184188     0.17700
F1570       F  0.62184883  0.06887801  0.71579568    -0.20100
C1571       C  0.70553785  0.91597859  0.69323479    -0.21500
C1572       C  0.67171286  0.91742099  0.69949481    -0.09600
C1573       C  0.65536491  0.88822548  0.70826081     0.29300
C1574       C  0.67273364  0.85888988  0.71192090    -0.21500
C1575       C  0.70675673  0.85763495  0.70681092    -0.09600
C1576       C  0.72288049  0.88648162  0.69656149     0.29300
F1577       F  0.75543414  0.88637708  0.68980449    -0.20100
H1578       H  0.71871627  0.93780844  0.68587710     0.17700
H1579       H  0.65950243  0.83727819  0.71981275     0.17700
F1580       F  0.62275162  0.88803044  0.71469345    -0.20100
C1581       C  0.78909429  0.03929171  0.83506687    -0.21500
C1582       C  0.80834520  0.03906864  0.86360976    -0.09600
C1583       C  0.82040436  0.06883126  0.87617804     0.29300
C1584       C  0.81308281  0.09825512  0.86047283    -0.21500
C1585       C  0.79430076  0.09824346  0.83180792    -0.09600
C1586       C  0.78219740  0.06866046  0.81915204     0.29300
F1587       F  0.76361713  0.06826085  0.79152959    -0.20100
H1588       H  0.77924035  0.01674067  0.82509808     0.17700
H1589       H  0.82317028  0.12093306  0.86993021     0.17700
F1590       F  0.84030616  0.06942807  0.90280210    -0.20100
C1591       C  0.80639781  0.86005734  0.85931312    -0.21500
C1592       C  0.79740940  0.86146702  0.82623569    -0.09600
C1593       C  0.79610839  0.89196528  0.81024476     0.29300
C1594       C  0.80318911  0.92054803  0.82740202    -0.21500
C1595       C  0.81181203  0.91932402  0.86071954    -0.09600
C1596       C  0.81381452  0.88860609  0.87642955     0.29300
F1597       F  0.82291462  0.88584121  0.90825181    -0.20100
H1598       H  0.80833538  0.83670463  0.87183013     0.17700
H1599       H  0.80145364  0.94370509  0.81453105     0.17700
F1600       F  0.78738187  0.89430370  0.77821415    -0.20100
C1601       C  0.33005670  0.35554082  0.09177881    -0.21500
C1602       C  0.32659606  0.33888648  0.06177653    -0.09600
C1603       C  0.32136218  0.30469840  0.06244311     0.29300
C1604       C  0.31931386  0.28800667  0.09224411    -0.21500
C1605       C  0.32234506  0.30467866  0.12227428    -0.09600
C1606       C  0.32804319  0.33877514  0.12165410     0.29300
F1607       F  0.33153627  0.35614044  0.14980474    -0.20100
H1608       H  0.33425019  0.38175126  0.09225573     0.17700
H1609       H  0.31466636  0.26186900  0.09164205     0.17700
F1610       F  0.31771783  0.28713479  0.03442811    -0.20100
C1611       C  0.33352044  0.30642341  0.93927130    -0.21500
C1612       C  0.32453312  0.33965570  0.94097323    -0.09600
C1613       C  0.31285820  0.35526557  0.91251909     0.29300
C1614       C  0.31008946  0.33786303  0.88320565    -0.21500
C1615       C  0.31885400  0.30456698  0.88147905    -0.09600
C1616       C  0.33090118  0.28901758  0.90986979     0.29300
F1617       F  0.34048770  0.25713386  0.90927258    -0.20100
H1618       H  0.34287577  0.29389095  0.96072125     0.17700
H1619       H  0.30030989  0.35041012  0.86195090     0.17700
F1620       F  0.30303002  0.38706214  0.91313272    -0.20100
C1621       C  0.15404705  0.21365872  0.09087027    -0.21500
C1622       C  0.17147832  0.20712947  0.06189096    -0.09600
C1623       C  0.20586135  0.20567872  0.06296211     0.29300
C1624       C  0.22226733  0.21072638  0.09232358    -0.21500
C1625       C  0.20494751  0.21716155  0.12136925    -0.09600
C1626       C  0.17051234  0.21870791  0.12037033     0.29300
F1627       F  0.15260684  0.22459176  0.14777607    -0.20100
H1628       H  0.12756506  0.21512335  0.09076303     0.17700
H1629       H  0.24876795  0.20941025  0.09218214     0.17700
F1630       F  0.22386628  0.19887454  0.03587458    -0.20100
C1631       C  0.22124638  0.21708723  0.91158012    -0.21500
C1632       C  0.20394183  0.21742404  0.88188784    -0.09600
C1633       C  0.16982720  0.21281570  0.88225485     0.29300
C1634       C  0.15351354  0.20799899  0.91193826    -0.21500
C1635       C  0.17087808  0.20769045  0.94171757    -0.09600
C1636       C  0.20508402  0.21230272  0.94113804     0.29300
F1637       F  0.22325909  0.21224164  0.96896160    -0.20100
H1638       H  0.24754170  0.22066126  0.91202585     0.17700
H1639       H  0.12723300  0.20444940  0.91150537     0.17700
F1640       F  0.15234585  0.21200018  0.85397785    -0.20100
C1641       C  0.74011350  0.66841035  0.09118369    -0.21500
C1642       C  0.73826837  0.65173597  0.12130526    -0.09600
C1643       C  0.73019785  0.61807531  0.12079452     0.29300
C1644       C  0.72660772  0.60136105  0.09088569    -0.21500
C1645       C  0.73039136  0.61775909  0.06073966    -0.09600
C1646       C  0.73609589  0.65189652  0.06141603     0.29300
F1647       F  0.73880117  0.66953313  0.03335916    -0.20100
H1648       H  0.74570975  0.69435257  0.09042717     0.17700
H1649       H  0.72139642  0.57533471  0.09142281     0.17700
F1650       F  0.72612129  0.60107199  0.14908331    -0.20100
C1651       C  0.74505575  0.62046164  0.88040418    -0.21500
C1652       C  0.74622469  0.65501237  0.88094759    -0.09600
C1653       C  0.74276867  0.67084816  0.91150123     0.29300
C1654       C  0.73865327  0.65253943  0.94032206    -0.21500
C1655       C  0.73774619  0.61797164  0.93977150    -0.09600
C1656       C  0.74092099  0.60218221  0.90920624     0.29300
F1657       F  0.74044926  0.56901051  0.90687620    -0.20100
H1658       H  0.74773730  0.60726150  0.85754303     0.17700
H1659       H  0.73621029  0.66569395  0.96322961     0.17700
F1660       F  0.74341993  0.70404280  0.91383040    -0.20100
C1661       C  0.86240191  0.74760859  0.05934240    -0.21500
C1662       C  0.89673381  0.74825349  0.05938604    -0.09600
C1663       C  0.91368637  0.74282356  0.08896353     0.29300
C1664       C  0.89642812  0.73698056  0.11780221    -0.21500
C1665       C  0.86207949  0.73682636  0.11783419    -0.09600
C1666       C  0.84514590  0.74209107  0.08816168     0.29300
F1667       F  0.81190240  0.74195576  0.08674507    -0.20100
H1668       H  0.84872316  0.75169622  0.03696573     0.17700
H1669       H  0.91005336  0.73323773  0.14026782     0.17700
F1670       F  0.94690133  0.74288162  0.09019983    -0.20100
C1671       C  0.86406074  0.74093786  0.93981641    -0.21500
C1672       C  0.89765064  0.74845172  0.93940068    -0.09600
C1673       C  0.91399269  0.75040692  0.90902914     0.29300
C1674       C  0.89679029  0.74557973  0.87991584    -0.21500
C1675       C  0.86313882  0.73888229  0.88050011    -0.09600
C1676       C  0.84692743  0.73620399  0.91076670     0.29300
F1677       F  0.81455416  0.72872256  0.91239234    -0.20100
H1678       H  0.85077320  0.73885511  0.96268154     0.17700
H1679       H  0.90968737  0.74784026  0.85683305     0.17700
F1680       F  0.94646810  0.75714238  0.90718001    -0.20100
C1681       C  0.51503917  0.95065501  0.68825531    -0.21500
C1682       C  0.49799457  0.98016863  0.69339282    -0.09600
C1683       C  0.51620625  0.00900003  0.69905925     0.29300
C1684       C  0.55037966  0.00809695  0.69951887    -0.21500
C1685       C  0.56744748  0.97859081  0.69447964    -0.09600
C1686       C  0.54927814  0.94975665  0.68872871     0.29300
F1687       F  0.56435556  0.92059927  0.68331270    -0.20100
H1688       H  0.50187477  0.92805773  0.68373859     0.17700
H1689       H  0.56344986  0.03070500  0.70422549     0.17700
F1690       F  0.50128076  0.03813700  0.70487204    -0.20100
C1691       C  0.35983854  0.04288474  0.69767165    -0.21500
C1692       C  0.39421126  0.04200848  0.69721562    -0.09600
C1693       C  0.41135768  0.07194218  0.70069780     0.29300
C1694       C  0.39448451  0.10138803  0.70589870    -0.21500
C1695       C  0.36015087  0.10203908  0.70770406    -0.09600
C1696       C  0.34295627  0.07231768  0.70279499     0.29300
F1697       F  0.30973339  0.07124392  0.70356696    -0.20100
H1698       H  0.34579080  0.02056783  0.69470337     0.17700
H1699       H  0.40853327  0.12364387  0.70931673     0.17700
F1700       F  0.44453516  0.07301081  0.70006083    -0.20100
C1701       C  0.34253354  0.88832434  0.70248839    -0.21500
C1702       C  0.36007267  0.85891827  0.70731988    -0.09600
C1703       C  0.39459964  0.86029948  0.70635184     0.29300
C1704       C  0.41076153  0.89028384  0.70174613    -0.21500
C1705       C  0.39320967  0.91982894  0.69799860    -0.09600
C1706       C  0.35871363  0.91830418  0.69789167     0.29300
F1707       F  0.34035868  0.94574457  0.69373077    -0.20100
H1708       H  0.31601232  0.88835867  0.70279976     0.17700
H1709       H  0.43728573  0.89031315  0.70180783     0.17700
F1710       F  0.41302587  0.83292099  0.71069646    -0.20100
C1711       C  0.24254519  0.95053801  0.98164802    -0.21500
C1712       C  0.24438039  0.98032187  0.96452757    -0.09600
C1713       C  0.24483887  0.00995372  0.98226423     0.29300
C1714       C  0.24467473  0.00946154  0.01632365    -0.21500
C1715       C  0.24426850  0.97961279  0.03346861    -0.09600
C1716       C  0.24257177  0.95004347  0.01570996     0.29300
F1717       F  0.24195453  0.92047563  0.03094864    -0.20100
H1718       H  0.24196114  0.92734387  0.96873641     0.17700
H1719       H  0.24579212  0.03264378  0.02920853     0.17700
F1720       F  0.24646863  0.03949304  0.96701741    -0.20100
C1721       C  0.26510127  0.06847111  0.87920798    -0.21500
C1722       C  0.26199264  0.03910030  0.86150573    -0.09600
C1723       C  0.26523923  0.03963612  0.82717425     0.29300
C1724       C  0.27121700  0.06898528  0.81113362    -0.21500
C1725       C  0.27411534  0.09833264  0.82880170    -0.09600
C1726       C  0.27120672  0.09786677  0.86310413     0.29300
F1727       F  0.27338475  0.12577648  0.88110393    -0.20100
H1728       H  0.26291042  0.06882200  0.90563843     0.17700
H1729       H  0.27349701  0.06866401  0.78468665     0.17700
F1730       F  0.26249637  0.01205451  0.80880870    -0.20100
C1731       C  0.26652621  0.89060396  0.87982373    -0.21500
C1732       C  0.26018048  0.91945488  0.86215108    -0.09600
C1733       C  0.25951026  0.91837607  0.82772164     0.29300
C1734       C  0.26549609  0.88914212  0.81149351    -0.21500
C1735       C  0.27195836  0.86024243  0.82904998    -0.09600
C1736       C  0.27239456  0.86118446  0.86350335     0.29300
F1737       F  0.27793628  0.83376551  0.88152333    -0.20100
H1738       H  0.26726120  0.89078719  0.90634632     0.17700
H1739       H  0.26486379  0.88926169  0.78495995     0.17700
F1740       F  0.25263711  0.94532721  0.80947840    -0.20100
C1741       C  0.55314519  0.94821280  0.30219035    -0.21500
C1742       C  0.57045796  0.97747743  0.30791707    -0.09600
C1743       C  0.55242182  0.00673965  0.31178121     0.29300
C1744       C  0.51823104  0.00654917  0.30973663    -0.21500
C1745       C  0.50090502  0.97735765  0.30377227    -0.09600
C1746       C  0.51891241  0.94804605  0.30003056     0.29300
F1747       F  0.50374162  0.91914581  0.29376656    -0.20100
H1748       H  0.56610848  0.92527164  0.29889554     0.17700
H1749       H  0.50533114  0.02954615  0.31287106     0.17700
F1750       F  0.56757713  0.03575016  0.31760343    -0.20100
C1751       C  0.67799962  0.09760159  0.30716094    -0.21500
C1752       C  0.71046392  0.09716186  0.29550441    -0.09600
C1753       C  0.72562537  0.06644928  0.29059347     0.29300
C1754       C  0.70847302  0.03732508  0.29596712    -0.21500
C1755       C  0.67569309  0.03766491  0.30637080    -0.09600
C1756       C  0.66081243  0.06828764  0.31272974     0.29300
F1757       F  0.62967278  0.07009239  0.32421990    -0.20100
H1758       H  0.66570611  0.12070004  0.31171246     0.17700
H1759       H  0.72080705  0.01435874  0.29090498     0.17700
F1760       F  0.75680173  0.06423842  0.27940070    -0.20100
C1761       C  0.70790823  0.91697738  0.29156708    -0.21500
C1762       C  0.67537491  0.91654914  0.30283163    -0.09600
C1763       C  0.66067810  0.88591412  0.30925317     0.29300
C1764       C  0.67797224  0.85666961  0.30372236    -0.21500
C1765       C  0.71034537  0.85712896  0.29186517    -0.09600
C1766       C  0.72516511  0.88785567  0.28603031     0.29300
F1767       F  0.75604139  0.89003616  0.27389809    -0.20100
H1768       H  0.71995628  0.94000239  0.28616884     0.17700
H1769       H  0.66587190  0.83357376  0.30867628     0.17700
F1770       F  0.62967639  0.88404819  0.32109601    -0.20100
C1771       C  0.82991538  0.00718743  0.98217796    -0.21500
C1772       C  0.82805537  0.97754065  0.96479857    -0.09600
C1773       C  0.82677456  0.94787785  0.98244570     0.29300
C1774       C  0.82567364  0.94819312  0.01652731    -0.21500
C1775       C  0.82575185  0.97791152  0.03386434    -0.09600
C1776       C  0.82873751  0.00751720  0.01626915     0.29300
F1777       F  0.82942693  0.03700314  0.03161666    -0.20100
H1778       H  0.83128875  0.03042466  0.96940566     0.17700
H1779       H  0.82376585  0.92497445  0.02925466     0.17700
F1780       F  0.82529539  0.91845463  0.96706187    -0.20100
C1781       C  0.80496469  0.09675801  0.13914902    -0.21500
C1782       C  0.79711738  0.09536522  0.17254132    -0.09600
C1783       C  0.79495698  0.06482180  0.18819555     0.29300
C1784       C  0.80088100  0.03621434  0.17076245    -0.21500
C1785       C  0.80864455  0.03734472  0.13725148    -0.09600
C1786       C  0.81070595  0.06806231  0.12153706     0.29300
F1787       F  0.81785750  0.07064783  0.08920835    -0.20100
H1788       H  0.80704079  0.12013783  0.12671287     0.17700
H1789       H  0.79881846  0.01309776  0.18362279     0.17700
F1790       F  0.78627203  0.06246424  0.22016810    -0.20100
C1791       C  0.80236099  0.88759796  0.11859137    -0.21500
C1792       C  0.80096401  0.91760323  0.13552197    -0.09600
C1793       C  0.79327516  0.91737530  0.16923108     0.29300
C1794       C  0.78888846  0.88779499  0.18564655    -0.21500
C1795       C  0.79144527  0.85785284  0.16895841    -0.09600
C1796       C  0.79747490  0.85797255  0.13504643     0.29300
F1797       F  0.80008338  0.82949758  0.11802234    -0.20100
H1798       H  0.80781771  0.88691274  0.09264005     0.17700
H1799       H  0.78362950  0.88834070  0.21165079     0.17700
F1800       F  0.79025057  0.94554376  0.18669848    -0.20100
C1801       C  0.72579155  0.45918933  0.97184916    -0.21500
C1802       C  0.72585858  0.44206319  0.00181536    -0.09600
C1803       C  0.72579440  0.46058767  0.03102468     0.29300
C1804       C  0.72607339  0.49497268  0.03005485    -0.21500
C1805       C  0.72660785  0.51210920  0.00010096    -0.09600
C1806       C  0.72623190  0.49357781  0.97087367     0.29300
F1807       F  0.72650698  0.50841941  0.94113875    -0.20100
H1808       H  0.72575539  0.44596699  0.94884152     0.17700
H1809       H  0.72628880  0.50818183  0.05306507     0.17700
F1810       F  0.72580282  0.44572966  0.06074553    -0.20100
C1811       C  0.73481465  0.30195229  0.06239691    -0.21500
C1812       C  0.73312414  0.33644787  0.06256247    -0.09600
C1813       C  0.73553087  0.35268322  0.09301395     0.29300
C1814       C  0.74068906  0.33494072  0.12196490    -0.21500
C1815       C  0.74331443  0.30051728  0.12168927    -0.09600
C1816       C  0.73968586  0.28417196  0.09140260     0.29300
F1817       F  0.74112887  0.25097214  0.08948686    -0.20100
H1818       H  0.73270627  0.28849108  0.03962953     0.17700
H1819       H  0.74309344  0.34844436  0.14468254     0.17700
F1820       F  0.73341899  0.38580495  0.09509638    -0.20100
C1821       C  0.73730442  0.35459008  0.91198870    -0.21500
C1822       C  0.73088238  0.33712694  0.94102843    -0.09600
C1823       C  0.72788536  0.30271931  0.93909431     0.29300
C1824       C  0.73270494  0.28643046  0.90922189    -0.21500
C1825       C  0.74043525  0.30384836  0.88041597    -0.09600
C1826       C  0.74199231  0.33833700  0.88212693     0.29300
F1827       F  0.74914466  0.35654752  0.85524422    -0.20100
H1828       H  0.73960145  0.38103549  0.91240635     0.17700
H1829       H  0.73082156  0.25994256  0.90884789     0.17700
F1830       F  0.72044891  0.28460278  0.96597923    -0.20100
C1831       C  0.01642553  0.20282155  0.03102618    -0.21500
C1832       C  0.99935109  0.20004512  0.00131836    -0.09600
C1833       C  0.01667419  0.19228732  0.97258097     0.29300
C1834       C  0.05069729  0.18958438  0.97338223    -0.21500
C1835       C  0.06795781  0.19444105  0.00276814    -0.09600
C1836       C  0.05031278  0.20007325  0.03189664     0.29300
F1837       F  0.06558726  0.20459493  0.06109509    -0.20100
H1838       H  0.00372485  0.20845921  0.05363605     0.17700
H1839       H  0.06356507  0.18454383  0.95073338     0.17700
F1840       F  0.00094608  0.18777297  0.94363429    -0.20100
C1841       C  0.91489322  0.21857487  0.09032041    -0.21500
C1842       C  0.89723450  0.21742406  0.06080013    -0.09600
C1843       C  0.86281439  0.21777958  0.06161254     0.29300
C1844       C  0.84656795  0.21951521  0.09139983    -0.21500
C1845       C  0.86418265  0.22073888  0.12089665    -0.09600
C1846       C  0.89860352  0.22024986  0.12017757     0.29300
F1847       F  0.91658046  0.22072778  0.14817090    -0.20100
H1848       H  0.94142346  0.21831540  0.09039234     0.17700
H1849       H  0.82003086  0.21992176  0.09127961     0.17700
F1850       F  0.84465626  0.21583605  0.03383837    -0.20100
C1851       C  0.91515004  0.22266381  0.91135879    -0.21500
C1852       C  0.89849874  0.22701969  0.94115596    -0.09600
C1853       C  0.86472719  0.23432902  0.94063135     0.29300
C1854       C  0.84774999  0.23443262  0.91108300    -0.21500
C1855       C  0.86417774  0.22831259  0.88156734    -0.09600
C1856       C  0.89825094  0.22353008  0.88177358     0.29300
F1857       F  0.91506751  0.21824435  0.85357236    -0.20100
H1858       H  0.94118449  0.21760067  0.91086034     0.17700
H1859       H  0.82165536  0.23934168  0.91129015     0.17700
F1860       F  0.84782711  0.24098819  0.96848032    -0.20100
C1861       C  0.34346723  0.49578296  0.97255809    -0.21500
C1862       C  0.33814090  0.51344051  0.00166104    -0.09600
C1863       C  0.33290570  0.49567853  0.03089855     0.29300
C1864       C  0.33196416  0.46140734  0.03059365    -0.21500
C1865       C  0.33625989  0.44378348  0.00134161    -0.09600
C1866       C  0.34267612  0.46144296  0.97229895     0.29300
F1867       F  0.34818328  0.44572172  0.94350703    -0.20100
H1868       H  0.34804828  0.50856164  0.94976034     0.17700
H1869       H  0.32714587  0.44870130  0.05338459     0.17700
F1870       F  0.32769112  0.51120514  0.05983934    -0.20100
C1871       C  0.32757983  0.66931028  0.09261531    -0.21500
C1872       C  0.32598733  0.65208026  0.12244545    -0.09600
C1873       C  0.32971232  0.61767415  0.12167390     0.29300
C1874       C  0.33332383  0.60120345  0.09172252    -0.21500
C1875       C  0.33349777  0.61843270  0.06180040    -0.09600
C1876       C  0.33134314  0.65290828  0.06280109     0.29300
F1877       F  0.33235647  0.67110305  0.03503080    -0.20100
H1878       H  0.32523279  0.69575631  0.09209370     0.17700
H1879       H  0.33535452  0.57473219  0.09204811     0.17700
F1880       F  0.32918333  0.59967036  0.14963955    -0.20100
C1881       C  0.32968048  0.60170471  0.91021482    -0.21500
C1882       C  0.32966294  0.61849187  0.94035582    -0.09600
C1883       C  0.32653203  0.65298554  0.93975924     0.29300
C1884       C  0.32320961  0.66984567  0.91009098    -0.21500
C1885       C  0.32277051  0.65310167  0.87998812    -0.09600
C1886       C  0.32632671  0.61862423  0.88044251     0.29300
F1887       F  0.32618652  0.60097675  0.85224297    -0.20100
H1888       H  0.33209404  0.57526758  0.90956747     0.17700
H1889       H  0.32043011  0.69624587  0.91089352     0.17700
F1890       F  0.32623948  0.67080078  0.96779318    -0.20100
C1891       C  0.05104625  0.77421628  0.97281857    -0.21500
C1892       C  0.06767333  0.76661925  0.00199518    -0.09600
C1893       C  0.04970928  0.76394573  0.03131220     0.29300
C1894       C  0.01573196  0.76582899  0.03068982    -0.21500
C1895       C  0.99892501  0.77041846  0.00101855    -0.09600
C1896       C  0.01698395  0.77623646  0.97225836     0.29300
F1897       F  0.00189736  0.78277593  0.94336360    -0.20100
H1898       H  0.06427605  0.77742132  0.95004933     0.17700
H1899       H  0.00261168  0.76194852  0.05340690     0.17700
F1900       F  0.06453180  0.75768091  0.06041985    -0.20100
C1901       C  0.15289387  0.73905284  0.08928797    -0.21500
C1902       C  0.16986686  0.73949173  0.05934104    -0.09600
C1903       C  0.20418760  0.73582035  0.05943565     0.29300
C1904       C  0.22094747  0.73242545  0.08890605    -0.21500
C1905       C  0.20403773  0.73270509  0.11882219    -0.09600
C1906       C  0.16972805  0.73582608  0.11879434     0.29300
F1907       F  0.15249561  0.73720266  0.14721200    -0.20100
H1908       H  0.12652427  0.74180986  0.09003806     0.17700
H1909       H  0.24736391  0.72991013  0.08827245     0.17700
F1910       F  0.22188453  0.73638443  0.03129084    -0.20100
C1911       C  0.20207987  0.74971367  0.93931704    -0.21500
C1912       C  0.16816602  0.74461477  0.93969944    -0.09600
C1913       C  0.15182684  0.73698098  0.91036798     0.29300
C1914       C  0.16944791  0.73435428  0.88119021    -0.21500
C1915       C  0.20350046  0.73954476  0.88077398    -0.09600
C1916       C  0.21963929  0.74741350  0.91030990     0.29300
F1917       F  0.25244171  0.75277312  0.91154736    -0.20100
H1918       H  0.21515513  0.75588459  0.96157663     0.17700
H1919       H  0.15634746  0.72830822  0.85892315     0.17700
F1920       F  0.11907006  0.73129810  0.90994282    -0.20100
loop_ 
_geom_bond_atom_site_label_1 
_geom_bond_atom_site_label_2 
_geom_bond_distance 
_geom_bond_site_symmetry_2 
_ccdc_geom_bond_type 
C1            N2   1.354       .  A
C1            N6   1.354       .  A
C1         C1912   1.467       .  S
N2            C3   1.357   1_556  A
C3            N4   1.356       .  A
C3         C1892   1.474       .  S
N4            C5   1.354       .  A
C5            N6   1.352   1_554  A
C5         C1902   1.475       .  S
C7            N8   1.357       .  A
C7           N12   1.359       .  A
C7         C1875   1.494       .  S
N8            C9   1.359       .  A
C9           N10   1.364   1_554  A
C9         C1862   1.492       .  S
N10          C11   1.364       .  A
C11          N12   1.361   1_556  A
C11        C1882   1.498       .  S
C13          N14   1.351       .  A
C13          N18   1.352       .  A
C13        C1842   1.467       .  S
N14          C15   1.353       .  A
C15          N16   1.356   1_554  A
C15        C1832   1.470       .  S
N16          C17   1.357       .  A
C17          N18   1.353   1_556  A
C17        C1852   1.474       .  S
C19          N20   1.361   1_556  A
C19          N24   1.361       .  A
C19        C1822   1.495       .  S
N20          C21   1.363       .  A
C21          N22   1.363       .  A
C21        C1812   1.498       .  S
N22          C23   1.362       .  A
C23          N24   1.361   1_554  A
C23        C1802   1.499       .  S
C25          N26   1.352       .  A
C25          N30   1.357       .  A
C25        C1792   1.481       .  S
N26          C27   1.354   1_565  A
C27          N28   1.354       .  A
C27        C1785   1.475       .  S
N28          C29   1.356   1_545  A
C29          N30   1.360       .  A
C29        C1775   1.478       .  S
C31          N32   1.361   1_545  A
C31          N36   1.359       .  A
C31        C1755   1.493       .  S
N32          C33   1.361       .  A
C33          N34   1.360       .  A
C33        C1762   1.493       .  S
N34          C35   1.362       .  A
C35          N36   1.361   1_565  A
C35        C1742   1.492       .  S
C37          N38   1.350   1_545  A
C37          N42   1.353       .  A
C37        C1722   1.469       .  S
N38          C39   1.351       .  A
C39          N40   1.355       .  A
C39        C1732   1.468       .  S
N40          C41   1.356       .  A
C41          N42   1.354   1_565  A
C41        C1712   1.473       .  S
C43          N44   1.365       .  A
C43          N48   1.360       .  A
C43        C1705   1.498       .  S
N44          C45   1.365   1_565  A
C45          N46   1.357       .  A
C45        C1692   1.494       .  S
N46          C47   1.356   1_545  A
C47          N48   1.359       .  A
C47        C1682   1.487       .  S
C49          N50   1.352       .  A
C49          N54   1.354   1_554  A
C49        C1662   1.472       .  S
N50          C51   1.354       .  A
C51          N52   1.356   1_554  A
C51        C1895   1.474       .  S
N52          C53   1.356       .  A
C53          N54   1.356       .  A
C53        C1672   1.477       .  S
C55          N56   1.362       .  A
C55          N60   1.360       .  A
C55        C1645   1.498       .  S
N56          C57   1.365   1_554  A
C57          N58   1.365       .  A
C57        C1805   1.501   1_556  S
N58          C59   1.363       .  A
C59          N60   1.359   1_556  A
C59        C1655   1.500       .  S
C61          N62   1.355   1_556  A
C61          N66   1.357       .  A
C61        C1635   1.479       .  S
N62          C63   1.353       .  A
C63          N64   1.352       .  A
C63        C1622   1.473       .  S
N64          C65   1.354       .  A
C65          N66   1.358   1_554  A
C65        C1835   1.474       .  S
C67          N68   1.357       .  A
C67          N72   1.357   1_556  A
C67        C1612   1.481       .  S
N68          C69   1.358   1_556  A
C69          N70   1.362       .  A
C69        C1865   1.489       .  S
N70          C71   1.362       .  A
C71          N72   1.359       .  A
C71        C1602   1.490       .  S
C73          N74   1.355       .  A
C73          N78   1.354       .  A
C73        C1595   1.475       .  S
N74          C75   1.355       .  A
C75          N76   1.356   1_565  A
C75        C1772   1.477       .  S
N76          C77   1.355       .  A
C77          N78   1.353   1_545  A
C77        C1582   1.469       .  S
C79          N80   1.358       .  A
C79          N84   1.364   1_545  A
C79        C1562   1.492       .  S
N80          C81   1.358   1_545  A
C81          N82   1.357       .  A
C81        C1685   1.487       .  S
N82          C83   1.358       .  A
C83          N84   1.364       .  A
C83        C1572   1.490       .  S
C85          N86   1.354       .  A
C85          N90   1.355   1_545  A
C85        C1542   1.478       .  S
N86          C87   1.357   1_545  A
C87          N88   1.356       .  A
C87        C1715   1.474       .  S
N88          C89   1.354       .  A
C89          N90   1.354       .  A
C89        C1552   1.479       .  S
C91          N92   1.361       .  A
C91          N96   1.360       .  A
C91        C1532   1.493       .  S
N92          C93   1.359       .  A
C93          N94   1.360   1_565  A
C93        C1745   1.492       .  S
N94          C95   1.359       .  A
C95          N96   1.361   1_545  A
C95        C1525   1.488       .  S
C97          N98   1.354       .  A
C97         N102   1.354       .  A
C97        C1512   1.476   1_455  S
N98          C99   1.356       .  A
C99         N100   1.354       .  A
C99        C1505   1.472       .  S
N100        C101   1.354       .  A
C101        N102   1.356       .  A
C101       C1495   1.474       .  S
C103        N104   1.360       .  A
C103        N108   1.361       .  A
C103       C1482   1.496   1_455  S
N104        C105   1.361       .  A
C105        N106   1.362       .  A
C105       C1462   1.493       .  S
N106        C107   1.361       .  A
C107        N108   1.361       .  A
C107       C1472   1.496       .  S
C109        N110   1.356       .  A
C109        N114   1.357       .  A
C109       C1445   1.477       .  S
N110        C111   1.356       .  A
C111        N112   1.353       .  A
C111       C1492   1.473       .  S
N112        C113   1.354       .  A
C113        N114   1.355       .  A
C113       C1452   1.475   1_455  S
C115        N116   1.364       .  A
C115        N120   1.362       .  A
C115       C1432   1.499   1_455  S
N116        C117   1.363       .  A
C117        N118   1.360       .  A
C117       C1422   1.494       .  S
N118        C119   1.360       .  A
C119        N120   1.361       .  A
C119       C1412   1.496       .  S
C121        N122   1.353       .  A
C121        N126   1.353       .  A
C121       C1402   1.472       .  S
N122        C123   1.355       .  A
C123        N124   1.356       .  A
C123       C1392   1.478   1_455  S
N124        C125   1.358       .  A
C125        N126   1.356       .  A
C125       C1382   1.476       .  S
C127        N128   1.361       .  A
C127        N132   1.360       .  A
C127       C1372   1.496       .  S
N128        C129   1.362       .  A
C129        N130   1.363       .  A
C129       C1415   1.497       .  S
N130        C131   1.361       .  A
C131        N132   1.361       .  A
C131       C1365   1.498   1_455  S
C133        N134   1.356       .  A
C133        N138   1.355       .  A
C133       C1352   1.480   1_455  S
N134        C135   1.356       .  A
C135        N136   1.354       .  A
C135       C1345   1.478       .  S
N136        C137   1.355       .  A
C137        N138   1.357       .  A
C137       C1385   1.476       .  S
C139        N140   1.361       .  A
C139        N144   1.359       .  A
C139       C1322   1.490       .  S
N140        C141   1.360       .  A
C141        N142   1.361       .  A
C141       C1332   1.494   1_455  S
N142        C143   1.361       .  A
C143        N144   1.359       .  A
C143       C1465   1.492       .  S
C145        N146   1.355       .  A
C145        N150   1.355       .  A
C145       C1302   1.477       .  S
N146        C147   1.356       .  A
C147        N148   1.356       .  A
C147       C1292   1.477       .  S
N148        C149   1.356       .  A
C149        N150   1.355       .  A
C149       C1315   1.477       .  S
C151        N152   1.362       .  A
C151        N156   1.360       .  A
C151       C1282   1.495       .  S
N152        C153   1.362       .  A
C153        N154   1.361       .  A
C153       C1272   1.497       .  S
N154        C155   1.360       .  A
C155        N156   1.360       .  A
C155       C1262   1.491       .  S
O157       Zr193   2.423       .  S
O157        C168   1.291       .  A
O158       Zr192   2.444       .  S
O158        C169   1.293       .  A
O159       Zr165   2.453       .  S
O159        C170   1.295       .  A
O160       Zr165   2.412       .  S
O160        C171   1.289       .  A
O161       Zr195   2.432       .  S
O161        C171   1.291       .  A
O162       Zr194   2.443       .  S
O162        C170   1.293       .  A
O163       Zr165   2.444       .  S
O163        C169   1.294       .  A
O164       Zr165   2.425       .  S
O164        C168   1.290       .  A
Zr165       O166   2.342       .  S
Zr165       O167   2.336       .  S
Zr165       O175   2.343       .  S
Zr165       O173   2.321       .  S
O166       Zr192   2.327       .  S
O166       Zr195   2.338       .  S
O167       Zr193   2.346       .  S
O167       Zr194   2.326       .  S
C168       C1905   1.470       .  S
C169       C1375   1.495       .  S
C170       C1275   1.497       .  S
C171       C1405   1.473       .  S
H172        O173   0.964       .  S
O173       Zr192   2.338       .  S
O173       Zr194   2.340       .  S
H174        O175   0.965       .  S
O175       Zr193   2.342       .  S
O175       Zr195   2.343       .  S
O176       Zr192   2.418       .  S
O176        C199   1.290       .  A
O177       Zr193   2.460       .  S
O177        C200   1.296       .  A
O178       Zr194   2.418       .  S
O178        C201   1.289       .  A
O179       Zr195   2.456       .  S
O179        C202   1.295       .  A
O180       Zr195   2.414       .  S
O180        C203   1.289       .  A
O181       Zr194   2.448       .  S
O181        C204   1.294       .  A
O182       Zr196   2.416       .  S
O182        C205   1.289       .  A
O183       Zr196   2.444       .  S
O183        C206   1.294       .  A
O184       Zr194   2.426       .  S
O184        C205   1.291       .  A
O185       Zr195   2.441       .  S
O185        C206   1.292       .  A
O186       Zr192   2.427       .  S
O186        C201   1.290       .  A
O187       Zr193   2.440       .  S
O187        C204   1.293       .  A
O188       Zr193   2.448       .  S
O188        C203   1.294       .  A
O189       Zr192   2.430       .  S
O189        C202   1.291       .  A
O190       Zr196   2.444       .  S
O190        C199   1.294       .  A
O191       Zr196   2.451       .  S
O191        C200   1.295       .  A
Zr192       O198   2.340       .  S
Zr192       O210   2.345       .  S
Zr193       O197   2.340       .  S
Zr193       O208   2.329       .  S
Zr194       O198   2.343       .  S
Zr194       O208   2.339       .  S
Zr195       O197   2.348       .  S
Zr195       O210   2.330       .  S
Zr196       O197   2.331       .  S
Zr196       O198   2.342       .  S
Zr196       O210   2.342       .  S
Zr196       O208   2.345       .  S
C199       C1245   1.480       .  S
C200       C1232   1.500       .  S
C201       C1305   1.464       .  S
C202       C1252   1.494       .  S
C203       C1555   1.470       .  S
C204       C1872   1.494       .  S
C205       C1222   1.462       .  S
C206       C1535   1.493       .  S
H207        O208   0.964       .  S
H209        O210   0.965       .  S
C211        N212   1.355       .  A
C211        N216   1.354       .  A
C211       C1212   1.478       .  S
N212        C213   1.355       .  A
C213        N214   1.354       .  A
C213       C1202   1.469       .  S
N214        C215   1.355       .  A
C215        N216   1.355       .  A
C215       C1192   1.474       .  S
C217        N218   1.359       .  A
C217        N222   1.361       .  A
C217       C1185   1.493       .  S
N218        C219   1.359       .  A
C219        N220   1.360       .  A
C219       C1162   1.492       .  S
N220        C221   1.360       .  A
C221        N222   1.361       .  A
C221       C1172   1.494       .  S
O223       Zr259   2.407       .  S
O223        C234   1.288       .  A
O224       Zr258   2.438       .  S
O224        C235   1.293       .  A
O225       Zr231   2.468       .  S
O225        C236   1.298       .  A
O226       Zr231   2.414       .  S
O226        C237   1.289       .  A
O227       Zr261   2.443       .  S
O227        C237   1.293       .  A
O228       Zr260   2.437       .  S
O228        C236   1.292       .  A
O229       Zr231   2.430       .  S
O229        C235   1.291       .  A
O230       Zr231   2.421       .  S
O230        C234   1.289       .  A
Zr231       O232   2.348       .  S
Zr231       O233   2.336       .  S
Zr231       O241   2.346       .  S
Zr231       O239   2.320       .  S
O232       Zr258   2.327       .  S
O232       Zr261   2.335       .  S
O233       Zr259   2.344       .  S
O233       Zr260   2.332       .  S
C234       C1725   1.464       .  S
C235       C1615   1.482       .  S
C236       C1135   1.499       .  S
C237       C1632   1.473       .  S
H238        O239   0.965       .  S
O239       Zr258   2.339       .  S
O239       Zr260   2.341       .  S
H240        O241   0.965       .  S
O241       Zr259   2.339       .  S
O241       Zr261   2.346       .  S
O242       Zr258   2.426       .  S
O242        C265   1.291       .  A
O243       Zr259   2.445       .  S
O243        C266   1.294       .  A
O244       Zr260   2.439       .  S
O244        C267   1.293       .  A
O245       Zr261   2.461       .  S
O245        C268   1.297       .  A
O246       Zr261   2.421       .  S
O246        C269   1.290       .  A
O247       Zr260   2.466       .  S
O247        C270   1.298       .  A
O248       Zr262   2.418       .  S
O248        C271   1.290       .  A
O249       Zr262   2.455       .  S
O249        C272   1.296       .  A
O250       Zr260   2.428       .  S
O250        C271   1.291       .  A
O251       Zr261   2.442       .  S
O251        C272   1.294       .  A
O252       Zr258   2.419       .  S
O252        C267   1.290       .  A
O253       Zr259   2.420       .  S
O253        C270   1.288       .  A
O254       Zr259   2.421       .  S
O254        C269   1.290       .  A
O255       Zr258   2.430       .  S
O255        C268   1.290       .  A
O256       Zr262   2.435       .  S
O256        C265   1.292       .  A
O257       Zr262   2.447       .  S
O257        C266   1.294       .  A
Zr258       O264   2.335       .  S
Zr258       O276   2.339       .  S
Zr259       O263   2.330       .  S
Zr259       O274   2.322       .  S
Zr260       O264   2.343       .  S
Zr260       O274   2.339       .  S
Zr261       O263   2.345       .  S
Zr261       O276   2.337       .  S
Zr262       O263   2.326       .  S
Zr262       O264   2.341       .  S
Zr262       O276   2.341       .  S
Zr262       O274   2.342       .  S
C265       C1145   1.481       .  S
C266       C1175   1.494       .  S
C267       C1122   1.481       .  S
C268       C1152   1.496       .  S
C269       C1502   1.470       .  S
C270       C1695   1.494       .  S
C271       C1205   1.476       .  S
C272       C1475   1.497       .  S
H273        O274   0.964       .  S
H275        O276   0.965       .  S
C277        N278   1.356       .  A
C277        N282   1.354       .  A
C277       C1242   1.477       .  S
N278        C279   1.358       .  A
C279        N280   1.356       .  A
C279       C1102   1.478       .  S
N280        C281   1.355       .  A
C281        N282   1.355       .  A
C281       C1112   1.476       .  S
C283        N284   1.359       .  A
C283        N288   1.364       .  A
C283       C1092   1.499       .  S
N284        C285   1.359       .  A
C285        N286   1.358       .  A
C285       C1165   1.491       .  S
N286        C287   1.360       .  A
C287        N288   1.365       .  A
C287       C1255   1.495       .  S
C289        N290   1.353       .  A
C289        N294   1.354       .  A
C289       C1082   1.471       .  S
N290        C291   1.355       .  A
C291        N292   1.360       .  A
C291       C1295   1.478       .  S
N292        C293   1.358       .  A
C293        N294   1.354       .  A
C293       C1142   1.479       .  S
C295        N296   1.365       .  A
C295        N300   1.358       .  A
C295       C1155   1.494       .  S
N296        C297   1.363       .  A
C297        N298   1.360       .  A
C297       C1075   1.495       .  S
N298        C299   1.360       .  A
C299        N300   1.358       .  A
C299       C1065   1.489       .  S
O301       Zr337   2.412       .  S
O301        C312   1.288       .  A
O302       Zr336   2.460       .  S
O302        C313   1.297       .  A
O303       Zr309   2.419       .  S
O303        C314   1.289       .  A
O304       Zr309   2.459       .  S
O304        C315   1.296       .  A
O305       Zr339   2.442       .  S
O305        C315   1.293       .  A
O306       Zr338   2.430       .  S
O306        C314   1.292       .  A
O307       Zr309   2.436       .  S
O307        C313   1.292       .  A
O308       Zr309   2.435       .  S
O308        C312   1.293       .  A
Zr309       O310   2.326       .  S
Zr309       O311   2.337       .  S
Zr309       O319   2.334       .  S
Zr309       O317   2.352       .  S
O310       Zr336   2.339       .  S
O310       Zr339   2.337       .  S
O311       Zr337   2.340       .  S
O311       Zr338   2.342       .  S
C312       C1915   1.476       .  S
C313       C1425   1.493       .  S
C314       C1442   1.477       .  S
C315       C1072   1.497       .  S
H316        O317   0.965       .  S
O317       Zr336   2.329       .  S
O317       Zr338   2.336       .  S
H318        O319   0.964       .  S
O319       Zr337   2.347       .  S
O319       Zr339   2.325       .  S
O320       Zr336   2.430       .  S
O320        C343   1.292       .  A
O321       Zr337   2.453       .  S
O321        C344   1.295       .  A
O322       Zr338   2.463       .  S
O322        C345   1.297       .  A
O323       Zr339   2.410       .  S
O323        C346   1.287       .  A
O324       Zr339   2.443       .  S
O324        C347   1.292       .  A
O325       Zr338   2.406       .  S
O325        C348   1.288       .  A
O326       Zr340   2.459       .  S
O326        C349   1.296       .  A
O327       Zr340   2.417       .  S
O327        C350   1.289       .  A
O328       Zr338   2.445       .  S
O328        C349   1.294       .  A
O329       Zr339   2.419       .  S
O329        C350   1.290       .  A
O330       Zr336   2.441       .  S
O330        C345   1.292       .  A
O331       Zr337   2.430       .  S
O331        C348   1.291       .  A
O332       Zr337   2.452       .  S
O332        C347   1.296       .  A
O333       Zr336   2.429       .  S
O333        C346   1.292       .  A
O334       Zr340   2.416       .  S
O334        C343   1.288       .  A
O335       Zr340   2.434       .  S
O335        C344   1.292       .  A
Zr336       O342   2.343       .  S
Zr336       O354   2.347       .  S
Zr337       O341   2.319       .  S
Zr337       O352   2.345       .  S
Zr338       O342   2.321       .  S
Zr338       O352   2.351       .  S
Zr339       O341   2.336       .  S
Zr339       O354   2.346       .  S
Zr340       O341   2.340       .  S
Zr340       O342   2.339       .  S
Zr340       O354   2.349       .  S
Zr340       O352   2.325       .  S
C343       C1115   1.460       .  S
C344       C1052   1.495       .  S
C345       C1095   1.500       .  S
C346       C1085   1.474       .  S
C347       C1885   1.497       .  S
C348       C1735   1.470       .  S
C349       C1702   1.499       .  S
C350       C1042   1.470       .  S
H351        O352   0.965       .  S
H353        O354   0.965       .  S
C355        N356   1.354       .  A
C355        N360   1.352       .  A
C355       C1032   1.466       .  S
N356        C357   1.353       .  A
C357        N358   1.354       .  A
C357       C1012   1.468       .  S
N358        C359   1.354       .  A
C359        N360   1.352       .  A
C359       C1022   1.470       .  S
C361        N362   1.362       .  A
C361        N366   1.362       .  A
C361        C995   1.497       .  S
N362        C363   1.362       .  A
C363        N364   1.359       .  A
C363       C1005   1.492       .  S
N364        C365   1.358       .  A
C365        N366   1.361       .  A
C365       C1265   1.490       .  S
C367        N368   1.355       .  A
C367        N372   1.353       .  A
C367        C982   1.471       .  S
N368        C369   1.356       .  A
C369        N370   1.356       .  A
C369        C972   1.474       .  S
N370        C371   1.354       .  A
C371        N372   1.354       .  A
C371       C1225   1.474       .  S
C373        N374   1.361       .  A
C373        N378   1.364       .  A
C373        C965   1.498       .  S
N374        C375   1.361       .  A
C375        N376   1.361       .  A
C375        C952   1.496       .  S
N376        C377   1.361       .  A
C377        N378   1.363       .  A
C377       C1235   1.498       .  S
O379       Zr415   2.426       .  S
O379        C390   1.291       .  A
O380       Zr414   2.454       .  S
O380        C391   1.295       .  A
O381       Zr387   2.404       .  S
O381        C392   1.286       .  A
O382       Zr387   2.448       .  S
O382        C393   1.294       .  A
O383       Zr417   2.446       .  S
O383        C393   1.293       .  A
O384       Zr416   2.441       .  S
O384        C392   1.294       .  A
O385       Zr387   2.446       .  S
O385        C391   1.294       .  A
O386       Zr387   2.436       .  S
O386        C390   1.292       .  A
Zr387       O388   2.320       .  S
Zr387       O389   2.340       .  S
Zr387       O397   2.337       .  S
Zr387       O395   2.350       .  S
O388       Zr414   2.336       .  S
O388       Zr417   2.342       .  S
O389       Zr415   2.340       .  S
O389       Zr416   2.342       .  S
C390       C1795   1.473       .  S
C391       C1642   1.498       .  S
C392       C1665   1.472       .  S
C393        C962   1.498       .  S
H394        O395   0.965       .  S
O395       Zr414   2.328       .  S
O395       Zr416   2.346       .  S
H396        O397   0.964       .  S
O397       Zr415   2.347       .  S
O397       Zr417   2.328       .  S
O398       Zr414   2.411       .  S
O398        C421   1.288       .  A
O399       Zr415   2.462       .  S
O399        C422   1.297       .  A
O400       Zr416   2.455       .  S
O400        C423   1.295       .  A
O401       Zr417   2.420       .  S
O401        C424   1.290       .  A
O402       Zr417   2.456       .  S
O402        C425   1.296       .  A
O403       Zr416   2.418       .  S
O403        C426   1.289       .  A
O404       Zr418   2.456       .  S
O404        C427   1.296       .  A
O405       Zr418   2.422       .  S
O405        C428   1.289       .  A
O406       Zr416   2.453       .  S
O406        C427   1.295       .  A
O407       Zr417   2.439       .  S
O407        C428   1.294       .  A
O408       Zr414   2.447       .  S
O408        C423   1.294       .  A
O409       Zr415   2.437       .  S
O409        C426   1.293       .  A
O410       Zr415   2.439       .  S
O410        C425   1.292       .  A
O411       Zr414   2.430       .  S
O411        C424   1.291       .  A
O412       Zr418   2.423       .  S
O412        C421   1.290       .  A
O413       Zr418   2.430       .  S
O413        C422   1.290       .  A
Zr414       O420   2.344       .  S
Zr414       O432   2.349       .  S
Zr415       O419   2.329       .  S
Zr415       O430   2.341       .  S
Zr416       O420   2.325       .  S
Zr416       O430   2.349       .  S
Zr417       O419   2.339       .  S
Zr417       O432   2.346       .  S
Zr418       O419   2.342       .  S
Zr418       O420   2.337       .  S
Zr418       O432   2.347       .  S
Zr418       O430   2.331       .  S
C421       C1025   1.461       .  S
C422        C942   1.496       .  S
C423        C992   1.500       .  S
C424        C985   1.478       .  S
C425       C1765   1.494       .  S
C426       C1395   1.471       .  S
C427       C1362   1.501       .  S
C428        C932   1.478       .  S
H429        O430   0.965       .  S
H431        O432   0.965       .  S
C433        N434   1.354       .  A
C433        N438   1.358       .  A
C433        C922   1.479       .  S
N434        C435   1.356       .  A
C435        N436   1.356       .  A
C435       C1105   1.478       .  S
N436        C437   1.356       .  A
C437        N438   1.357       .  A
C437        C935   1.480       .  S
C439        N440   1.362       .  A
C439        N444   1.358       .  A
C439        C912   1.488       .  S
N440        C441   1.361       .  A
C441        N442   1.358       .  A
C441        C945   1.494       .  S
N442        C443   1.359       .  A
C443        N444   1.358       .  A
C443        C902   1.486       .  S
C445        N446   1.356       .  A
C445        N450   1.353       .  A
C445        C892   1.472       .  S
N446        C447   1.357       .  A
C447        N448   1.355       .  A
C447        C882   1.478       .  S
N448        C449   1.354       .  A
C449        N450   1.353       .  A
C449       C1045   1.474       .  S
C451        N452   1.361       .  A
C451        N456   1.361       .  A
C451       C1055   1.495       .  S
N452        C453   1.362       .  A
C453        N454   1.360       .  A
C453        C955   1.494       .  S
N454        C455   1.360       .  A
C455        N456   1.360       .  A
C455        C872   1.493       .  S
C457        N458   1.354       .  A
C457        N462   1.356       .  A
C457        C855   1.473       .  S
N458        C459   1.352       .  A
C459        N460   1.351       .  A
C459        C862   1.460       .  S
N460        C461   1.353       .  A
C461        N462   1.356       .  A
C461       C1015   1.469       .  S
C463        N464   1.357       .  A
C463        N468   1.362       .  A
C463        C845   1.493       .  S
N464        C465   1.359       .  A
C465        N466   1.360       .  A
C465       C1062   1.488       .  S
N466        C467   1.360       .  A
C467        N468   1.362       .  A
C467        C835   1.492       .  S
O469       Zr505   2.410       .  S
O469        C480   1.288       .  A
O470       Zr504   2.463       .  S
O470        C481   1.297       .  A
O471       Zr477   2.460       .  S
O471        C482   1.297       .  A
O472       Zr477   2.428       .  S
O472        C483   1.291       .  A
O473       Zr507   2.423       .  S
O473        C483   1.290       .  A
O474       Zr506   2.431       .  S
O474        C482   1.291       .  A
O475       Zr477   2.438       .  S
O475        C481   1.293       .  A
O476       Zr477   2.439       .  S
O476        C480   1.293       .  A
Zr477       O478   2.341       .  S
Zr477       O479   2.339       .  S
Zr477       O487   2.342       .  S
Zr477       O485   2.330       .  S
O478       Zr504   2.322       .  S
O478       Zr507   2.330       .  S
O479       Zr505   2.344       .  S
O479       Zr506   2.328       .  S
C480       C1675   1.468       .  S
C481       C1435   1.500       .  S
C482        C842   1.494       .  S
C483       C1455   1.473       .  S
H484        O485   0.964       .  S
O485       Zr504   2.331       .  S
O485       Zr506   2.344       .  S
H486        O487   0.965       .  S
O487       Zr505   2.348       .  S
O487       Zr507   2.347       .  S
O488       Zr504   2.422       .  S
O488        C511   1.290       .  A
O489       Zr505   2.454       .  S
O489        C512   1.295       .  A
O490       Zr506   2.422       .  S
O490        C513   1.290       .  A
O491       Zr507   2.452       .  S
O491        C514   1.295       .  A
O492       Zr507   2.405       .  S
O492        C515   1.287       .  A
O493       Zr506   2.447       .  S
O493        C516   1.294       .  A
O494       Zr508   2.421       .  S
O494        C517   1.290       .  A
O495       Zr508   2.448       .  S
O495        C518   1.295       .  A
O496       Zr506   2.427       .  S
O496        C517   1.291       .  A
O497       Zr507   2.437       .  S
O497        C518   1.292       .  A
O498       Zr504   2.420       .  S
O498        C513   1.290       .  A
O499       Zr505   2.457       .  S
O499        C516   1.296       .  A
O500       Zr505   2.437       .  S
O500        C515   1.293       .  A
O501       Zr504   2.426       .  S
O501        C514   1.289       .  A
O502       Zr508   2.430       .  S
O502        C511   1.291       .  A
O503       Zr508   2.435       .  S
O503        C512   1.292       .  A
Zr504       O510   2.344       .  S
Zr504       O522   2.342       .  S
Zr505       O509   2.341       .  S
Zr505       O520   2.326       .  S
Zr506       O510   2.340       .  S
Zr506       O520   2.337       .  S
Zr507       O509   2.344       .  S
Zr507       O522   2.322       .  S
Zr508       O509   2.329       .  S
Zr508       O510   2.343       .  S
Zr508       O522   2.338       .  S
Zr508       O520   2.345       .  S
C511        C925   1.467       .  S
C512        C875   1.493       .  S
C513        C865   1.473       .  S
C514        C915   1.489       .  S
C515       C1592   1.465       .  S
C516       C1652   1.501       .  S
C517        C895   1.470       .  S
C518       C1575   1.491       .  S
H519        O520   0.966       .  S
H521        O522   0.965       .  S
C523        N524   1.352       .  A
C523        N528   1.352       .  A
C523        C812   1.469       .  S
N524        C525   1.355       .  A
C525        N526   1.356       .  A
C525        C975   1.474       .  S
N526        C527   1.357       .  A
C527        N528   1.353       .  A
C527        C822   1.469       .  S
C529        N530   1.360       .  A
C529        N534   1.360       .  A
C529        C802   1.494       .  S
N530        C531   1.360       .  A
C531        N532   1.362       .  A
C531        C782   1.494       .  S
N532        C533   1.361       .  A
C533        N534   1.360       .  A
C533        C792   1.495       .  S
O535       Zr571   2.412       .  S
O535        C546   1.289       .  A
O536       Zr570   2.454       .  S
O536        C547   1.295       .  A
O537       Zr543   2.446       .  S
O537        C548   1.294       .  A
O538       Zr543   2.415       .  S
O538        C549   1.289       .  A
O539       Zr573   2.438       .  S
O539        C549   1.293       .  A
O540       Zr572   2.436       .  S
O540        C548   1.291       .  A
O541       Zr543   2.434       .  S
O541        C547   1.292       .  A
O542       Zr543   2.417       .  S
O542        C546   1.289       .  A
Zr543       O544   2.339       .  S
Zr543       O545   2.338       .  S
Zr543       O553   2.340       .  S
Zr543       O551   2.322       .  S
O544       Zr570   2.324       .  S
O544       Zr573   2.336       .  S
O545       Zr571   2.341       .  S
O545       Zr572   2.320       .  S
C546       C1845   1.465       .  S
C547       C1335   1.495       .  S
C548       C1002   1.491       .  S
C549       C1355   1.468       .  S
H550        O551   0.964       .  S
O551       Zr570   2.336       .  S
O551       Zr572   2.345       .  S
H552        O553   0.965       .  S
O553       Zr571   2.344       .  S
O553       Zr573   2.342       .  S
O554       Zr570   2.418       .  S
O554        C577   1.289       .  A
O555       Zr571   2.452       .  S
O555        C578   1.295       .  A
O556       Zr572   2.411       .  S
O556        C579   1.289       .  A
O557       Zr573   2.452       .  S
O557        C580   1.295       .  A
O558       Zr573   2.414       .  S
O558        C581   1.289       .  A
O559       Zr572   2.450       .  S
O559        C582   1.295       .  A
O560       Zr574   2.417       .  S
O560        C583   1.290       .  A
O561       Zr574   2.452       .  S
O561        C584   1.295       .  A
O562       Zr572   2.420       .  S
O562        C583   1.289       .  A
O563       Zr573   2.442       .  S
O563        C584   1.293       .  A
O564       Zr570   2.424       .  S
O564        C579   1.290       .  A
O565       Zr571   2.445       .  S
O565        C582   1.293       .  A
O566       Zr571   2.427       .  S
O566        C581   1.291       .  A
O567       Zr570   2.435       .  S
O567        C580   1.292       .  A
O568       Zr574   2.428       .  S
O568        C577   1.291       .  A
O569       Zr574   2.436       .  S
O569        C578   1.292       .  A
Zr570       O576   2.340       .  S
Zr570       O588   2.343       .  S
Zr571       O575   2.340       .  S
Zr571       O586   2.324       .  S
Zr572       O576   2.341       .  S
Zr572       O586   2.336       .  S
Zr573       O575   2.345       .  S
Zr573       O588   2.325       .  S
Zr574       O575   2.329       .  S
Zr574       O576   2.340       .  S
Zr574       O588   2.336       .  S
Zr574       O586   2.346       .  S
C577        C762   1.464       .  S
C578        C805   1.494       .  S
C579       C1035   1.472       .  S
C580        C772   1.492       .  S
C581       C1782   1.464       .  S
C582       C1815   1.498       .  S
C583        C825   1.472       .  S
C584       C1752   1.495       .  S
H585        O586   0.964       .  S
H587        O588   0.965       .  S
C589        N590   1.354       .  A
C589        N594   1.355       .  A
C589       C1125   1.479       .  S
N590        C591   1.357       .  A
C591        N592   1.357       .  A
C591        C885   1.478       .  S
N592        C593   1.357       .  A
C593        N594   1.356       .  A
C593        C752   1.480       .  S
C595        N596   1.359       .  A
C595        N600   1.361       .  A
C595       C1132   1.496       .  S
N596        C597   1.362       .  A
C597        N598   1.363       .  A
C597        C785   1.495       .  S
N598        C599   1.361       .  A
C599        N600   1.361       .  A
C599        C742   1.496       .  S
C601        N602   1.356       .  A
C601        N606   1.354       .  A
C601        C732   1.470       .  S
N602        C603   1.357       .  A
C603        N604   1.353       .  A
C603        C765   1.475       .  S
N604        C605   1.353       .  A
C605        N606   1.351       .  A
C605       C1195   1.471       .  S
C607        N608   1.360       .  A
C607        N612   1.357       .  A
C607        C775   1.490       .  S
N608        C609   1.360       .  A
C609        N610   1.360       .  A
C609        C725   1.489       .  S
N610        C611   1.358       .  A
C611        N612   1.359       .  A
C611        C905   1.487       .  S
O613       Zr649   2.428       .  S
O613        C624   1.292       .  A
O614       Zr648   2.459       .  S
O614        C625   1.295       .  A
O615       Zr621   2.416       .  S
O615        C626   1.289       .  A
O616       Zr621   2.450       .  S
O616        C627   1.294       .  A
O617       Zr651   2.437       .  S
O617        C627   1.293       .  A
O618       Zr650   2.434       .  S
O618        C626   1.292       .  A
O619       Zr621   2.440       .  S
O619        C625   1.293       .  A
O620       Zr621   2.418       .  S
O620        C624   1.289       .  A
Zr621       O622   2.320       .  S
Zr621       O623   2.345       .  S
Zr621       O631   2.341       .  S
Zr621       O629   2.342       .  S
O622       Zr648   2.330       .  S
O622       Zr651   2.340       .  S
O623       Zr649   2.344       .  S
O623       Zr650   2.341       .  S
C624       C1855   1.465       .  S
C625       C1485   1.497       .  S
C626       C1515   1.475       .  S
C627        C832   1.494       .  S
H628        O629   0.965       .  S
O629       Zr648   2.322       .  S
O629       Zr650   2.334       .  S
H630        O631   0.964       .  S
O631       Zr649   2.351       .  S
O631       Zr651   2.322       .  S
O632       Zr648   2.402       .  S
O632        C655   1.286       .  A
O633       Zr649   2.463       .  S
O633        C656   1.297       .  A
O634       Zr650   2.446       .  S
O634        C657   1.293       .  A
O635       Zr651   2.420       .  S
O635        C658   1.290       .  A
O636       Zr651   2.458       .  S
O636        C659   1.296       .  A
O637       Zr650   2.405       .  S
O637        C660   1.286       .  A
O638       Zr652   2.459       .  S
O638        C661   1.297       .  A
O639       Zr652   2.436       .  S
O639        C662   1.292       .  A
O640       Zr650   2.434       .  S
O640        C661   1.291       .  A
O641       Zr651   2.421       .  S
O641        C662   1.290       .  A
O642       Zr648   2.430       .  S
O642        C657   1.291       .  A
O643       Zr649   2.435       .  S
O643        C660   1.292       .  A
O644       Zr649   2.434       .  S
O644        C659   1.292       .  A
O645       Zr648   2.422       .  S
O645        C658   1.290       .  A
O646       Zr652   2.429       .  S
O646        C655   1.291       .  A
O647       Zr652   2.432       .  S
O647        C656   1.292       .  A
Zr648       O654   2.340       .  S
Zr648       O666   2.353       .  S
Zr649       O653   2.327       .  S
Zr649       O664   2.338       .  S
Zr650       O654   2.323       .  S
Zr650       O664   2.344       .  S
Zr651       O653   2.333       .  S
Zr651       O666   2.344       .  S
Zr652       O653   2.337       .  S
Zr652       O654   2.337       .  S
Zr652       O666   2.347       .  S
Zr652       O664   2.333       .  S
C655        C735   1.456       .  S
C656        C745   1.495       .  S
C657        C722   1.490       .  S
C658        C852   1.468       .  S
C659       C1825   1.495       .  S
C660       C1585   1.455       .  S
C661       C1565   1.493       .  S
C662        C755   1.481       .  S
H663        O664   0.964       .  S
H665        O666   0.965       .  S
O667       Zr703   2.416       .  S
O667        C678   1.289       .  A
O668       Zr702   2.460       .  S
O668        C679   1.297       .  A
O669       Zr675   2.422       .  S
O669        C680   1.290       .  A
O670       Zr675   2.455       .  S
O670        C681   1.295       .  A
O671       Zr705   2.430       .  S
O671        C681   1.291       .  A
O672       Zr704   2.426       .  S
O672        C680   1.290       .  A
O673       Zr675   2.415       .  S
O673        C679   1.288       .  A
O674       Zr675   2.428       .  S
O674        C678   1.290       .  A
Zr675       O676   2.326       .  S
Zr675       O677   2.334       .  S
Zr675       O685   2.331       .  S
Zr675       O683   2.347       .  S
O676       Zr702   2.335       .  S
O676       Zr705   2.336       .  S
O677       Zr703   2.336       .  S
O677       Zr704   2.338       .  S
C678       C1625   1.474       .  S
C679       C1325   1.489       .  S
C680       C1342   1.470       .  S
C681       C1285   1.494       .  S
H682        O683   0.965       .  S
O683       Zr702   2.332       .  S
O683       Zr704   2.338       .  S
H684        O685   0.964       .  S
O685       Zr703   2.345       .  S
O685       Zr705   2.330       .  S
O686       Zr702   2.430       .  S
O686        C709   1.292       .  A
O687       Zr703   2.449       .  S
O687        C710   1.294       .  A
O688       Zr704   2.450       .  S
O688        C711   1.294       .  A
O689       Zr705   2.419       .  S
O689        C712   1.290       .  A
O690       Zr705   2.447       .  S
O690        C713   1.294       .  A
O691       Zr704   2.418       .  S
O691        C714   1.289       .  A
O692       Zr706   2.449       .  S
O692        C715   1.295       .  A
O693       Zr706   2.417       .  S
O693        C716   1.290       .  A
O694       Zr704   2.433       .  S
O694        C715   1.291       .  A
O695       Zr705   2.422       .  S
O695        C716   1.289       .  A
O696       Zr702   2.437       .  S
O696        C711   1.293       .  A
O697       Zr703   2.429       .  S
O697        C714   1.291       .  A
O698       Zr703   2.435       .  S
O698        C713   1.292       .  A
O699       Zr702   2.432       .  S
O699        C712   1.291       .  A
O700       Zr706   2.426       .  S
O700        C709   1.291       .  A
O701       Zr706   2.436       .  S
O701        C710   1.293       .  A
Zr702       O708   2.341       .  S
Zr702       O720   2.346       .  S
Zr703       O707   2.326       .  S
Zr703       O718   2.338       .  S
Zr704       O708   2.324       .  S
Zr704       O718   2.344       .  S
Zr705       O707   2.337       .  S
Zr705       O720   2.344       .  S
Zr706       O707   2.339       .  S
Zr706       O708   2.335       .  S
Zr706       O720   2.344       .  S
Zr706       O718   2.327       .  S
C709       C1215   1.470       .  S
C710        C795   1.494       .  S
C711       C1182   1.494       .  S
C712       C1312   1.472       .  S
C713       C1605   1.490       .  S
C714       C1545   1.470       .  S
C715       C1522   1.489       .  S
C716        C815   1.473       .  S
H717        O718   0.964       .  S
H719        O720   0.965       .  S
C721        C722   1.408       .  A
C721        C726   1.397       .  A
C721        H728   1.083       .  S
C722        C723   1.410       .  A
C723        C724   1.399       .  A
C723        F730   1.357       .  S
C724        C725   1.408       .  A
C724        H729   1.083       .  S
C725        C726   1.410       .  A
C726        F727   1.357       .  S
C731        C732   1.407       .  A
C731        C736   1.389       .  A
C731        H738   1.083       .  S
C732        C733   1.408       .  A
C733        C734   1.390       .  A
C733        F740   1.357       .  S
C734        C735   1.402       .  A
C734        H739   1.084       .  S
C735        C736   1.399       .  A
C736        F737   1.358       .  S
C741        C742   1.410       .  A
C741        C746   1.406       .  A
C741        H748   1.083       .  S
C742        C743   1.410       .  A
C743        C744   1.398       .  A
C743        F750   1.357       .  S
C744        C745   1.408       .  A
C744        H749   1.083       .  S
C745        C746   1.410       .  A
C746        F747   1.357       .  S
C751        C752   1.407       .  A
C751        C756   1.395       .  A
C751        H758   1.083       .  S
C752        C753   1.408       .  A
C753        C754   1.393       .  A
C753        F760   1.356       .  S
C754        C755   1.406       .  A
C754        H759   1.083       .  S
C755        C756   1.409       .  A
C756        F757   1.357       .  S
C761        C762   1.400       .  A
C761        C766   1.393       .  A
C761        H768   1.084       .  S
C762        C763   1.404       .  A
C763        C764   1.391       .  A
C763        F770   1.358       .  S
C764        C765   1.404       .  A
C764        H769   1.083       .  S
C765        C766   1.412       .  A
C766        F767   1.357       .  S
C771        C772   1.407       .  A
C771        C776   1.399       .  A
C771        H778   1.083       .  S
C772        C773   1.412       .  A
C773        C774   1.399       .  A
C773        F780   1.357       .  S
C774        C775   1.406       .  A
C774        H779   1.083       .  S
C775        C776   1.411       .  A
C776        F777   1.357       .  S
C781        C782   1.407       .  A
C781        C786   1.400   1_554  A
C781        H788   1.083       .  S
C782        C783   1.412       .  A
C783        C784   1.401   1_554  A
C783        F790   1.357       .  S
C784        C785   1.408       .  A
C784        H789   1.083       .  S
C785        C786   1.412       .  A
C786        F787   1.357       .  S
C791        C792   1.408       .  A
C791        C796   1.402       .  A
C791        H798   1.083       .  S
C792        C793   1.411       .  A
C793        C794   1.398       .  A
C793        F800   1.356       .  S
C794        C795   1.408       .  A
C794        H799   1.083       .  S
C795        C796   1.411       .  A
C796        F797   1.357       .  S
C801        C802   1.408       .  A
C801        C806   1.402       .  A
C801        H808   1.083       .  S
C802        C803   1.411       .  A
C803        C804   1.398       .  A
C803        F810   1.356       .  S
C804        C805   1.408       .  A
C804        H809   1.083       .  S
C805        C806   1.410       .  A
C806        F807   1.357       .  S
C811        C812   1.405       .  A
C811        C816   1.394       .  A
C811        H818   1.083       .  S
C812        C813   1.404       .  A
C813        C814   1.386       .  A
C813        F820   1.356       .  S
C814        C815   1.405       .  A
C814        H819   1.083       .  S
C815        C816   1.409       .  A
C816        F817   1.358       .  S
C821        C822   1.402       .  A
C821        C826   1.392       .  A
C821        H828   1.083       .  S
C822        C823   1.407       .  A
C823        C824   1.388       .  A
C823        F830   1.357       .  S
C824        C825   1.404       .  A
C824        H829   1.083       .  S
C825        C826   1.409       .  A
C826        F827   1.357       .  S
C831        C832   1.409       .  A
C831        C836   1.400       .  A
C831        H838   1.083       .  S
C832        C833   1.411       .  A
C833        C834   1.401       .  A
C833        F840   1.357       .  S
C834        C835   1.408       .  A
C834        H839   1.083       .  S
C835        C836   1.409       .  A
C836        F837   1.357       .  S
C841        C842   1.406       .  A
C841        C846   1.401       .  A
C841        H848   1.083       .  S
C842        C843   1.414       .  A
C843        C844   1.398       .  A
C843        F850   1.358       .  S
C844        C845   1.405       .  A
C844        H849   1.083       .  S
C845        C846   1.413       .  A
C846        F847   1.357       .  S
C851        C852   1.402       .  A
C851        C856   1.389       .  A
C851        H858   1.084       .  S
C852        C853   1.406       .  A
C853        C854   1.393       .  A
C853        F860   1.358       .  S
C854        C855   1.406       .  A
C854        H859   1.083       .  S
C855        C856   1.409       .  A
C856        F857   1.358       .  S
C861        C862   1.401       .  A
C861        C866   1.391       .  A
C861        H868   1.084       .  S
C862        C863   1.402       .  A
C863        C864   1.390       .  A
C863        F870   1.358       .  S
C864        C865   1.407       .  A
C864        H869   1.083       .  S
C865        C866   1.409       .  A
C866        F867   1.358       .  S
C871        C872   1.408       .  A
C871        C876   1.400       .  A
C871        H878   1.083       .  S
C872        C873   1.410       .  A
C873        C874   1.399       .  A
C873        F880   1.357       .  S
C874        C875   1.409       .  A
C874        H879   1.083       .  S
C875        C876   1.410       .  A
C876        F877   1.357       .  S
C881        C882   1.405       .  A
C881        C886   1.395       .  A
C881        H888   1.083       .  S
C882        C883   1.408       .  A
C883        C884   1.390       .  A
C883        F890   1.356       .  S
C884        C885   1.404       .  A
C884        H889   1.083       .  S
C885        C886   1.409       .  A
C886        F887   1.357       .  S
C891        C892   1.405       .  A
C891        C896   1.391       .  A
C891        H898   1.083       .  S
C892        C893   1.407       .  A
C893        C894   1.393       .  A
C893        F900   1.357       .  S
C894        C895   1.403       .  A
C894        H899   1.083       .  S
C895        C896   1.407       .  A
C896        F897   1.358       .  S
C901        C902   1.407       .  A
C901        C906   1.399       .  A
C901        H908   1.083       .  S
C902        C903   1.408       .  A
C903        C904   1.395       .  A
C903        F910   1.356       .  S
C904        C905   1.406   1_565  A
C904        H909   1.083   1_565  S
C905        C906   1.411   1_545  A
C906        F907   1.357   1_565  S
C911        C912   1.404       .  A
C911        C916   1.397       .  A
C911        H918   1.083       .  S
C912        C913   1.412       .  A
C913        C914   1.399       .  A
C913        F920   1.357       .  S
C914        C915   1.406       .  A
C914        H919   1.083       .  S
C915        C916   1.412       .  A
C916        F917   1.357       .  S
C921        C922   1.404       .  A
C921        C926   1.390       .  A
C921        H928   1.083       .  S
C922        C923   1.413       .  A
C923        C924   1.395       .  A
C923        F930   1.357       .  S
C924        C925   1.401       .  A
C924        H929   1.084       .  S
C925        C926   1.404       .  A
C926        F927   1.356       .  S
C931        C932   1.403       .  A
C931        C936   1.394       .  A
C931        H938   1.083       .  S
C932        C933   1.410       .  A
C933        C934   1.395       .  A
C933        F940   1.358       .  S
C934        C935   1.405       .  A
C934        H939   1.083       .  S
C935        C936   1.409       .  A
C936        F937   1.356       .  S
C941        C942   1.406       .  A
C941        C946   1.401       .  A
C941        H948   1.083       .  S
C942        C943   1.414       .  A
C943        C944   1.400       .  A
C943        F950   1.357       .  S
C944        C945   1.406       .  A
C944        H949   1.083       .  S
C945        C946   1.413       .  A
C946        F947   1.356       .  S
C951        C952   1.408       .  A
C951        C956   1.402   1_554  A
C951        H958   1.083       .  S
C952        C953   1.411       .  A
C953        C954   1.400   1_554  A
C953        F960   1.357       .  S
C954        C955   1.407       .  A
C954        H959   1.083       .  S
C955        C956   1.412       .  A
C956        F957   1.358       .  S
C961        C962   1.408       .  A
C961        C966   1.403       .  A
C961        H968   1.083       .  S
C962        C963   1.412       .  A
C963        C964   1.402       .  A
C963        F970   1.357       .  S
C964        C965   1.408       .  A
C964        H969   1.083       .  S
C965        C966   1.413       .  A
C966        F967   1.357       .  S
C971        C972   1.406       .  A
C971        C976   1.394       .  A
C971        H978   1.083       .  S
C972        C973   1.407       .  A
C973        C974   1.388       .  A
C973        F980   1.357       .  S
C974        C975   1.404       .  A
C974        H979   1.083       .  S
C975        C976   1.408       .  A
C976        F977   1.358       .  S
C981        C982   1.403       .  A
C981        C986   1.394       .  A
C981        H988   1.083       .  S
C982        C983   1.406       .  A
C983        C984   1.390       .  A
C983        F990   1.358       .  S
C984        C985   1.406       .  A
C984        H989   1.083       .  S
C985        C986   1.410       .  A
C986        F987   1.357       .  S
C991        C992   1.410       .  A
C991        C996   1.403       .  A
C991        H998   1.083       .  S
C992        C993   1.412       .  A
C993        C994   1.401       .  A
C993       F1000   1.357       .  S
C994        C995   1.408       .  A
C994        H999   1.083       .  S
C995        C996   1.412       .  A
C996        F997   1.358       .  S
C1001      C1002   1.406       .  A
C1001      C1006   1.399       .  A
C1001      H1008   1.083       .  S
C1002      C1003   1.412       .  A
C1003      C1004   1.400       .  A
C1003      F1010   1.358       .  S
C1004      C1005   1.406       .  A
C1004      H1009   1.083       .  S
C1005      C1006   1.412       .  A
C1006      F1007   1.356       .  S
C1011      C1012   1.403       .  A
C1011      C1016   1.389       .  A
C1011      H1018   1.083       .  S
C1012      C1013   1.407       .  A
C1013      C1014   1.391       .  A
C1013      F1020   1.358       .  S
C1014      C1015   1.404       .  A
C1014      H1019   1.083       .  S
C1015      C1016   1.407       .  A
C1016      F1017   1.357       .  S
C1021      C1022   1.406       .  A
C1021      C1026   1.391       .  A
C1021      H1028   1.083       .  S
C1022      C1023   1.409       .  A
C1023      C1024   1.388       .  A
C1023      F1030   1.357       .  S
C1024      C1025   1.401       .  A
C1024      H1029   1.084       .  S
C1025      C1026   1.404       .  A
C1026      F1027   1.358       .  S
C1031      C1032   1.402       .  A
C1031      C1036   1.390       .  A
C1031      H1038   1.083       .  S
C1032      C1033   1.405       .  A
C1033      C1034   1.389       .  A
C1033      F1040   1.358       .  S
C1034      C1035   1.406       .  A
C1034      H1039   1.083       .  S
C1035      C1036   1.408       .  A
C1036      F1037   1.357       .  S
C1041      C1042   1.404       .  A
C1041      C1046   1.390       .  A
C1041      H1048   1.083       .  S
C1042      C1043   1.407       .  A
C1043      C1044   1.390       .  A
C1043      F1050   1.358       .  S
C1044      C1045   1.405       .  A
C1044      H1049   1.083       .  S
C1045      C1046   1.408       .  A
C1046      F1047   1.356       .  S
C1051      C1052   1.408       .  A
C1051      C1056   1.398       .  A
C1051      H1058   1.083       .  S
C1052      C1053   1.411       .  A
C1053      C1054   1.403       .  A
C1053      F1060   1.357       .  S
C1054      C1055   1.409       .  A
C1054      H1059   1.083       .  S
C1055      C1056   1.411       .  A
C1056      F1057   1.356       .  S
C1061      C1062   1.406   1_455  A
C1061      C1066   1.397       .  A
C1061      H1068   1.083       .  S
C1062      C1063   1.410   1_655  A
C1063      C1064   1.400       .  A
C1063      F1070   1.358       .  S
C1064      C1065   1.408       .  A
C1064      H1069   1.083       .  S
C1065      C1066   1.409       .  A
C1066      F1067   1.357       .  S
C1071      C1072   1.410       .  A
C1071      C1076   1.406       .  A
C1071      H1078   1.083       .  S
C1072      C1073   1.410       .  A
C1073      C1074   1.401       .  A
C1073      F1080   1.357       .  S
C1074      C1075   1.408       .  A
C1074      H1079   1.083       .  S
C1075      C1076   1.410       .  A
C1076      F1077   1.357       .  S
C1081      C1082   1.402       .  A
C1081      C1086   1.389       .  A
C1081      H1088   1.083       .  S
C1082      C1083   1.408       .  A
C1083      C1084   1.393       .  A
C1083      F1090   1.357       .  S
C1084      C1085   1.405       .  A
C1084      H1089   1.083       .  S
C1085      C1086   1.410       .  A
C1086      F1087   1.358       .  S
C1091      C1092   1.407       .  A
C1091      C1096   1.405       .  A
C1091      H1098   1.083       .  S
C1092      C1093   1.413       .  A
C1093      C1094   1.402       .  A
C1093      F1100   1.357       .  S
C1094      C1095   1.406       .  A
C1094      H1099   1.083       .  S
C1095      C1096   1.414       .  A
C1096      F1097   1.357       .  S
C1101      C1102   1.404       .  A
C1101      C1106   1.392       .  A
C1101      H1108   1.083       .  S
C1102      C1103   1.409       .  A
C1103      C1104   1.393       .  A
C1103      F1110   1.358       .  S
C1104      C1105   1.405       .  A
C1104      H1109   1.083       .  S
C1105      C1106   1.408       .  A
C1106      F1107   1.356       .  S
C1111      C1112   1.407       .  A
C1111      C1116   1.394       .  A
C1111      H1118   1.083       .  S
C1112      C1113   1.410       .  A
C1113      C1114   1.390       .  A
C1113      F1120   1.357       .  S
C1114      C1115   1.399       .  A
C1114      H1119   1.084       .  S
C1115      C1116   1.403       .  A
C1116      F1117   1.358       .  S
C1121      C1122   1.408       .  A
C1121      C1126   1.395       .  A
C1121      H1128   1.083       .  S
C1122      C1123   1.408       .  A
C1123      C1124   1.392       .  A
C1123      F1130   1.357       .  S
C1124      C1125   1.404       .  A
C1124      H1129   1.083       .  S
C1125      C1126   1.409       .  A
C1126      F1127   1.358       .  S
C1131      C1132   1.405       .  A
C1131      C1136   1.399       .  A
C1131      H1138   1.083       .  S
C1132      C1133   1.413       .  A
C1133      C1134   1.407       .  A
C1133      F1140   1.357       .  S
C1134      C1135   1.408       .  A
C1134      H1139   1.083       .  S
C1135      C1136   1.414       .  A
C1136      F1137   1.357       .  S
C1141      C1142   1.405       .  A
C1141      C1146   1.397       .  A
C1141      H1148   1.083       .  S
C1142      C1143   1.409       .  A
C1143      C1144   1.392       .  A
C1143      F1150   1.358       .  S
C1144      C1145   1.405       .  A
C1144      H1149   1.083       .  S
C1145      C1146   1.409       .  A
C1146      F1147   1.357       .  S
C1151      C1152   1.406       .  A
C1151      C1156   1.403       .  A
C1151      H1158   1.083       .  S
C1152      C1153   1.414       .  A
C1153      C1154   1.399       .  A
C1153      F1160   1.357       .  S
C1154      C1155   1.404       .  A
C1154      H1159   1.083       .  S
C1155      C1156   1.415       .  A
C1156      F1157   1.357       .  S
C1161      C1162   1.408   1_565  A
C1161      C1166   1.400       .  A
C1161      H1168   1.083   1_565  S
C1162      C1163   1.410   1_545  A
C1163      C1164   1.398       .  A
C1163      F1170   1.356   1_565  S
C1164      C1165   1.407       .  A
C1164      H1169   1.083       .  S
C1165      C1166   1.411       .  A
C1166      F1167   1.357       .  S
C1171      C1172   1.407       .  A
C1171      C1176   1.401       .  A
C1171      H1178   1.083       .  S
C1172      C1173   1.411       .  A
C1173      C1174   1.400       .  A
C1173      F1180   1.357       .  S
C1174      C1175   1.408       .  A
C1174      H1179   1.083       .  S
C1175      C1176   1.411       .  A
C1176      F1177   1.357       .  S
C1181      C1182   1.409       .  A
C1181      C1186   1.399       .  A
C1181      H1188   1.083       .  S
C1182      C1183   1.411       .  A
C1183      C1184   1.401       .  A
C1183      F1190   1.357       .  S
C1184      C1185   1.408       .  A
C1184      H1189   1.083       .  S
C1185      C1186   1.410       .  A
C1186      F1187   1.357       .  S
C1191      C1192   1.405       .  A
C1191      C1196   1.392       .  A
C1191      H1198   1.083       .  S
C1192      C1193   1.408       .  A
C1193      C1194   1.388       .  A
C1193      F1200   1.357       .  S
C1194      C1195   1.403       .  A
C1194      H1199   1.083       .  S
C1195      C1196   1.408       .  A
C1196      F1197   1.358       .  S
C1201      C1202   1.404       .  A
C1201      C1206   1.394       .  A
C1201      H1208   1.083       .  S
C1202      C1203   1.404       .  A
C1203      C1204   1.389       .  A
C1203      F1210   1.358       .  S
C1204      C1205   1.407       .  A
C1204      H1209   1.083       .  S
C1205      C1206   1.409       .  A
C1206      F1207   1.358       .  S
C1211      C1212   1.407       .  A
C1211      C1216   1.393       .  A
C1211      H1218   1.083       .  S
C1212      C1213   1.409       .  A
C1213      C1214   1.393       .  A
C1213      F1220   1.357       .  S
C1214      C1215   1.403       .  A
C1214      H1219   1.084       .  S
C1215      C1216   1.405       .  A
C1216      F1217   1.358       .  S
C1221      C1222   1.401       .  A
C1221      C1226   1.393       .  A
C1221      H1228   1.084       .  S
C1222      C1223   1.403       .  A
C1223      C1224   1.389       .  A
C1223      F1230   1.358       .  S
C1224      C1225   1.406       .  A
C1224      H1229   1.083       .  S
C1225      C1226   1.410       .  A
C1226      F1227   1.357       .  S
C1231      C1232   1.409       .  A
C1231      C1236   1.404       .  A
C1231      H1238   1.083       .  S
C1232      C1233   1.412       .  A
C1233      C1234   1.403       .  A
C1233      F1240   1.357       .  S
C1234      C1235   1.408       .  A
C1234      H1239   1.083       .  S
C1235      C1236   1.410       .  A
C1236      F1237   1.357       .  S
C1241      C1242   1.405       .  A
C1241      C1246   1.397       .  A
C1241      H1248   1.083       .  S
C1242      C1243   1.408       .  A
C1243      C1244   1.393       .  A
C1243      F1250   1.358       .  S
C1244      C1245   1.407       .  A
C1244      H1249   1.083       .  S
C1245      C1246   1.408       .  A
C1246      F1247   1.357       .  S
C1251      C1252   1.409       .  A
C1251      C1256   1.399       .  A
C1251      H1258   1.083       .  S
C1252      C1253   1.409       .  A
C1253      C1254   1.402       .  A
C1253      F1260   1.358       .  S
C1254      C1255   1.410       .  A
C1254      H1259   1.083       .  S
C1255      C1256   1.409       .  A
C1256      F1257   1.357       .  S
C1261      C1262   1.406       .  A
C1261      C1266   1.399       .  A
C1261      H1268   1.083       .  S
C1262      C1263   1.411       .  A
C1263      C1264   1.401       .  A
C1263      F1270   1.357       .  S
C1264      C1265   1.406   1_455  A
C1264      H1269   1.083       .  S
C1265      C1266   1.410   1_655  A
C1266      F1267   1.357       .  S
C1271      C1272   1.408       .  A
C1271      C1276   1.402       .  A
C1271      H1278   1.083       .  S
C1272      C1273   1.412       .  A
C1273      C1274   1.401       .  A
C1273      F1280   1.357       .  S
C1274      C1275   1.407       .  A
C1274      H1279   1.083       .  S
C1275      C1276   1.413       .  A
C1276      F1277   1.358       .  S
C1281      C1282   1.409       .  A
C1281      C1286   1.402       .  A
C1281      H1288   1.083       .  S
C1282      C1283   1.410       .  A
C1283      C1284   1.399       .  A
C1283      F1290   1.357       .  S
C1284      C1285   1.409       .  A
C1284      H1289   1.083       .  S
C1285      C1286   1.410       .  A
C1286      F1287   1.357       .  S
C1291      C1292   1.404       .  A
C1291      C1296   1.392       .  A
C1291      H1298   1.083       .  S
C1292      C1293   1.408       .  A
C1293      C1294   1.393       .  A
C1293      F1300   1.357       .  S
C1294      C1295   1.404       .  A
C1294      H1299   1.083       .  S
C1295      C1296   1.410       .  A
C1296      F1297   1.357       .  S
C1301      C1302   1.408       .  A
C1301      C1306   1.394       .  A
C1301      H1308   1.083       .  S
C1302      C1303   1.410       .  A
C1303      C1304   1.390       .  A
C1303      F1310   1.356       .  S
C1304      C1305   1.401       .  A
C1304      H1309   1.084       .  S
C1305      C1306   1.403       .  A
C1306      F1307   1.358       .  S
C1311      C1312   1.403       .  A
C1311      C1316   1.391       .  A
C1311      H1318   1.084       .  S
C1312      C1313   1.406       .  A
C1313      C1314   1.395       .  A
C1313      F1320   1.358       .  S
C1314      C1315   1.406       .  A
C1314      H1319   1.083       .  S
C1315      C1316   1.409       .  A
C1316      F1317   1.356       .  S
C1321      C1322   1.405       .  A
C1321      C1326   1.397       .  A
C1321      H1328   1.083       .  S
C1322      C1323   1.412       .  A
C1323      C1324   1.399       .  A
C1323      F1330   1.356       .  S
C1324      C1325   1.405       .  A
C1324      H1329   1.083       .  S
C1325      C1326   1.414       .  A
C1326      F1327   1.358       .  S
C1331      C1332   1.408       .  A
C1331      C1336   1.401       .  A
C1331      H1338   1.083       .  S
C1332      C1333   1.411       .  A
C1333      C1334   1.400       .  A
C1333      F1340   1.357   1_655  S
C1334      C1335   1.409       .  A
C1334      H1339   1.083       .  S
C1335      C1336   1.411       .  A
C1336      F1337   1.357       .  S
C1341      C1342   1.403       .  A
C1341      C1346   1.389       .  A
C1341      H1348   1.084       .  S
C1342      C1343   1.406       .  A
C1343      C1344   1.396       .  A
C1343      F1350   1.358       .  S
C1344      C1345   1.408       .  A
C1344      H1349   1.083       .  S
C1345      C1346   1.408       .  A
C1346      F1347   1.357       .  S
C1351      C1352   1.406       .  A
C1351      C1356   1.392       .  A
C1351      H1358   1.083       .  S
C1352      C1353   1.411       .  A
C1353      C1354   1.396       .  A
C1353      F1360   1.357       .  S
C1354      C1355   1.401       .  A
C1354      H1359   1.084       .  S
C1355      C1356   1.405       .  A
C1356      F1357   1.358       .  S
C1361      C1362   1.410       .  A
C1361      C1366   1.404       .  A
C1361      H1368   1.083       .  S
C1362      C1363   1.412       .  A
C1363      C1364   1.401       .  A
C1363      F1370   1.357       .  S
C1364      C1365   1.408       .  A
C1364      H1369   1.083       .  S
C1365      C1366   1.412       .  A
C1366      F1367   1.357       .  S
C1371      C1372   1.409       .  A
C1371      C1376   1.403       .  A
C1371      H1378   1.083       .  S
C1372      C1373   1.411       .  A
C1373      C1374   1.399       .  A
C1373      F1380   1.357       .  S
C1374      C1375   1.407       .  A
C1374      H1379   1.083       .  S
C1375      C1376   1.412       .  A
C1376      F1377   1.358       .  S
C1381      C1382   1.405       .  A
C1381      C1386   1.391       .  A
C1381      H1388   1.083       .  S
C1382      C1383   1.407       .  A
C1383      C1384   1.393       .  A
C1383      F1390   1.357   1_455  S
C1384      C1385   1.405   1_565  A
C1384      H1389   1.083   1_465  S
C1385      C1386   1.408   1_545  A
C1386      F1387   1.357   1_565  S
C1391      C1392   1.406       .  A
C1391      C1396   1.390       .  A
C1391      H1398   1.083       .  S
C1392      C1393   1.410       .  A
C1393      C1394   1.396       .  A
C1393      F1400   1.357       .  S
C1394      C1395   1.403       .  A
C1394      H1399   1.083       .  S
C1395      C1396   1.406       .  A
C1396      F1397   1.358       .  S
C1401      C1402   1.405       .  A
C1401      C1406   1.394       .  A
C1401      H1408   1.083       .  S
C1402      C1403   1.406       .  A
C1403      C1404   1.389       .  A
C1403      F1410   1.358       .  S
C1404      C1405   1.406       .  A
C1404      H1409   1.083       .  S
C1405      C1406   1.407       .  A
C1406      F1407   1.358       .  S
C1411      C1412   1.408       .  A
C1411      C1416   1.402       .  A
C1411      H1418   1.083       .  S
C1412      C1413   1.411       .  A
C1413      C1414   1.401       .  A
C1413      F1420   1.357   1_455  S
C1414      C1415   1.408       .  A
C1414      H1419   1.083   1_455  S
C1415      C1416   1.412       .  A
C1416      F1417   1.357       .  S
C1421      C1422   1.407       .  A
C1421      C1426   1.403       .  A
C1421      H1428   1.083       .  S
C1422      C1423   1.411       .  A
C1423      C1424   1.400       .  A
C1423      F1430   1.357       .  S
C1424      C1425   1.406       .  A
C1424      H1429   1.083       .  S
C1425      C1426   1.413       .  A
C1426      F1427   1.358       .  S
C1431      C1432   1.410       .  A
C1431      C1436   1.404       .  A
C1431      H1438   1.083       .  S
C1432      C1433   1.410       .  A
C1433      C1434   1.402       .  A
C1433      F1440   1.357       .  S
C1434      C1435   1.410       .  A
C1434      H1439   1.083       .  S
C1435      C1436   1.411       .  A
C1436      F1437   1.357       .  S
C1441      C1442   1.405       .  A
C1441      C1446   1.393       .  A
C1441      H1448   1.083       .  S
C1442      C1443   1.410       .  A
C1443      C1444   1.392       .  A
C1443      F1450   1.358       .  S
C1444      C1445   1.404       .  A
C1444      H1449   1.083       .  S
C1445      C1446   1.409       .  A
C1446      F1447   1.357       .  S
C1451      C1452   1.405       .  A
C1451      C1456   1.392       .  A
C1451      H1458   1.083       .  S
C1452      C1453   1.408       .  A
C1453      C1454   1.394       .  A
C1453      F1460   1.357   1_655  S
C1454      C1455   1.405       .  A
C1454      H1459   1.083       .  S
C1455      C1456   1.407       .  A
C1456      F1457   1.358       .  S
C1461      C1462   1.407       .  A
C1461      C1466   1.399       .  A
C1461      H1468   1.083       .  S
C1462      C1463   1.411       .  A
C1463      C1464   1.399       .  A
C1463      F1470   1.357   1_455  S
C1464      C1465   1.406       .  A
C1464      H1469   1.083   1_455  S
C1465      C1466   1.411       .  A
C1466      F1467   1.356       .  S
C1471      C1472   1.408       .  A
C1471      C1476   1.402       .  A
C1471      H1478   1.083       .  S
C1472      C1473   1.411       .  A
C1473      C1474   1.402       .  A
C1473      F1480   1.357       .  S
C1474      C1475   1.408       .  A
C1474      H1479   1.083       .  S
C1475      C1476   1.411       .  A
C1476      F1477   1.357       .  S
C1481      C1482   1.410       .  A
C1481      C1486   1.405       .  A
C1481      H1488   1.083       .  S
C1482      C1483   1.410       .  A
C1483      C1484   1.398       .  A
C1483      F1490   1.357   1_655  S
C1484      C1485   1.408       .  A
C1484      H1489   1.083       .  S
C1485      C1486   1.411       .  A
C1486      F1487   1.357       .  S
C1491      C1492   1.404       .  A
C1491      C1496   1.394       .  A
C1491      H1498   1.083       .  S
C1492      C1493   1.408       .  A
C1493      C1494   1.389       .  A
C1493      F1500   1.357   1_455  S
C1494      C1495   1.404   1_565  A
C1494      H1499   1.083   1_465  S
C1495      C1496   1.409   1_545  A
C1496      F1497   1.357   1_565  S
C1501      C1502   1.404       .  A
C1501      C1506   1.393       .  A
C1501      H1508   1.083       .  S
C1502      C1503   1.407       .  A
C1503      C1504   1.389       .  A
C1503      F1510   1.358       .  S
C1504      C1505   1.403       .  A
C1504      H1509   1.083       .  S
C1505      C1506   1.409       .  A
C1506      F1507   1.357       .  S
C1511      C1512   1.406       .  A
C1511      C1516   1.392       .  A
C1511      H1518   1.083       .  S
C1512      C1513   1.408       .  A
C1513      C1514   1.392       .  A
C1513      F1520   1.358   1_655  S
C1514      C1515   1.406       .  A
C1514      H1519   1.083       .  S
C1515      C1516   1.406       .  A
C1516      F1517   1.357       .  S
C1521      C1522   1.406       .  A
C1521      C1526   1.399       .  A
C1521      H1528   1.083       .  S
C1522      C1523   1.411       .  A
C1523      C1524   1.398       .  A
C1523      F1530   1.358       .  S
C1524      C1525   1.406       .  A
C1524      H1529   1.083       .  S
C1525      C1526   1.411       .  A
C1526      F1527   1.357       .  S
C1531      C1532   1.409       .  A
C1531      C1536   1.403       .  A
C1531      H1538   1.083       .  S
C1532      C1533   1.410       .  A
C1533      C1534   1.397       .  A
C1533      F1540   1.356       .  S
C1534      C1535   1.406       .  A
C1534      H1539   1.083       .  S
C1535      C1536   1.412       .  A
C1536      F1537   1.358       .  S
C1541      C1542   1.405       .  A
C1541      C1546   1.389       .  A
C1541      H1548   1.082       .  S
C1542      C1543   1.411       .  A
C1543      C1544   1.396       .  A
C1543      F1550   1.357       .  S
C1544      C1545   1.403       .  A
C1544      H1549   1.084       .  S
C1545      C1546   1.405       .  A
C1546      F1547   1.358       .  S
C1551      C1552   1.409       .  A
C1551      C1556   1.397       .  A
C1551      H1558   1.083       .  S
C1552      C1553   1.409       .  A
C1553      C1554   1.390       .  A
C1553      F1560   1.357       .  S
C1554      C1555   1.403       .  A
C1554      H1559   1.084       .  S
C1555      C1556   1.404       .  A
C1556      F1557   1.358       .  S
C1561      C1562   1.405       .  A
C1561      C1566   1.401       .  A
C1561      H1568   1.083       .  S
C1562      C1563   1.413       .  A
C1563      C1564   1.401       .  A
C1563      F1570   1.357       .  S
C1564      C1565   1.406       .  A
C1564      H1569   1.083       .  S
C1565      C1566   1.413       .  A
C1566      F1567   1.357       .  S
C1571      C1572   1.406       .  A
C1571      C1576   1.402       .  A
C1571      H1578   1.083       .  S
C1572      C1573   1.412       .  A
C1573      C1574   1.398       .  A
C1573      F1580   1.357       .  S
C1574      C1575   1.406       .  A
C1574      H1579   1.083       .  S
C1575      C1576   1.412       .  A
C1576      F1577   1.357       .  S
C1581      C1582   1.405       .  A
C1581      C1586   1.391       .  A
C1581      H1588   1.083       .  S
C1582      C1583   1.407       .  A
C1583      C1584   1.393       .  A
C1583      F1590   1.357       .  S
C1584      C1585   1.399       .  A
C1584      H1589   1.084       .  S
C1585      C1586   1.403       .  A
C1586      F1587   1.359       .  S
C1591      C1592   1.400       .  A
C1591      C1596   1.391       .  A
C1591      H1598   1.084       .  S
C1592      C1593   1.406       .  A
C1593      C1594   1.390       .  A
C1593      F1600   1.358       .  S
C1594      C1595   1.406       .  A
C1594      H1599   1.083       .  S
C1595      C1596   1.410       .  A
C1596      F1597   1.356       .  S
C1601      C1602   1.407       .  A
C1601      C1606   1.401       .  A
C1601      H1608   1.083       .  S
C1602      C1603   1.411       .  A
C1603      C1604   1.397       .  A
C1603      F1610   1.357       .  S
C1604      C1605   1.407       .  A
C1604      H1609   1.083       .  S
C1605      C1606   1.410       .  A
C1606      F1607   1.357       .  S
C1611      C1612   1.405       .  A
C1611      C1616   1.398       .  A
C1611      H1618   1.083       .  S
C1612      C1613   1.407       .  A
C1613      C1614   1.396       .  A
C1613      F1620   1.357       .  S
C1614      C1615   1.406       .  A
C1614      H1619   1.083       .  S
C1615      C1616   1.409       .  A
C1616      F1617   1.358       .  S
C1621      C1622   1.406       .  A
C1621      C1626   1.394       .  A
C1621      H1628   1.083       .  S
C1622      C1623   1.406       .  A
C1623      C1624   1.388       .  A
C1623      F1630   1.356       .  S
C1624      C1625   1.405       .  A
C1624      H1629   1.083       .  S
C1625      C1626   1.408       .  A
C1626      F1627   1.358       .  S
C1631      C1632   1.403       .  A
C1631      C1636   1.389       .  A
C1631      H1638   1.084       .  S
C1632      C1633   1.406       .  A
C1633      C1634   1.397       .  A
C1633      F1640   1.357       .  S
C1634      C1635   1.407       .  A
C1634      H1639   1.083       .  S
C1635      C1636   1.409       .  A
C1636      F1637   1.357       .  S
C1641      C1642   1.407       .  A
C1641      C1646   1.399       .  A
C1641      H1648   1.083       .  S
C1642      C1643   1.412       .  A
C1643      C1644   1.406       .  A
C1643      F1650   1.357       .  S
C1644      C1645   1.409       .  A
C1644      H1649   1.083       .  S
C1645      C1646   1.412       .  A
C1646      F1647   1.357       .  S
C1651      C1652   1.410       .  A
C1651      C1656   1.402       .  A
C1651      H1658   1.083       .  S
C1652      C1653   1.411       .  A
C1653      C1654   1.404       .  A
C1653      F1660   1.357       .  S
C1654      C1655   1.410       .  A
C1654      H1659   1.083       .  S
C1655      C1656   1.410       .  A
C1656      F1657   1.356       .  S
C1661      C1662   1.402       .  A
C1661      C1666   1.390       .  A
C1661      H1668   1.083       .  S
C1662      C1663   1.409       .  A
C1663      C1664   1.393       .  A
C1663      F1670   1.357       .  S
C1664      C1665   1.402       .  A
C1664      H1669   1.083       .  S
C1665      C1666   1.411       .  A
C1666      F1667   1.358       .  S
C1671      C1672   1.405       .  A
C1671      C1676   1.390       .  A
C1671      H1678   1.083       .  S
C1672      C1673   1.410       .  A
C1673      C1674   1.394       .  A
C1673      F1680   1.356       .  S
C1674      C1675   1.401       .  A
C1674      H1679   1.083       .  S
C1675      C1676   1.406       .  A
C1676      F1677   1.358       .  S
C1681      C1682   1.406       .  A
C1681      C1686   1.398       .  A
C1681      H1688   1.083       .  S
C1682      C1683   1.411   1_565  A
C1683      C1684   1.396       .  A
C1683      F1690   1.356       .  S
C1684      C1685   1.405   1_545  A
C1684      H1689   1.083       .  S
C1685      C1686   1.410       .  A
C1686      F1687   1.357       .  S
C1691      C1692   1.404       .  A
C1691      C1696   1.399       .  A
C1691      H1698   1.083       .  S
C1692      C1693   1.415       .  A
C1693      C1694   1.400       .  A
C1693      F1700   1.355       .  S
C1694      C1695   1.404       .  A
C1694      H1699   1.083       .  S
C1695      C1696   1.415       .  A
C1696      F1697   1.357       .  S
C1701      C1702   1.410       .  A
C1701      C1706   1.403       .  A
C1701      H1708   1.083       .  S
C1702      C1703   1.411       .  A
C1703      C1704   1.403       .  A
C1703      F1710   1.357       .  S
C1704      C1705   1.410       .  A
C1704      H1709   1.083       .  S
C1705      C1706   1.410       .  A
C1706      F1707   1.357       .  S
C1711      C1712   1.403       .  A
C1711      C1716   1.391   1_556  A
C1711      H1718   1.083       .  S
C1712      C1713   1.409   1_565  A
C1713      C1714   1.390   1_556  A
C1713      F1720   1.358       .  S
C1714      C1715   1.404   1_545  A
C1714      H1719   1.083       .  S
C1715      C1716   1.409       .  A
C1716      F1717   1.357       .  S
C1721      C1722   1.405       .  A
C1721      C1726   1.390       .  A
C1721      H1728   1.083       .  S
C1722      C1723   1.408       .  A
C1723      C1724   1.386       .  A
C1723      F1730   1.356       .  S
C1724      C1725   1.402       .  A
C1724      H1729   1.084       .  S
C1725      C1726   1.405       .  A
C1726      F1727   1.358       .  S
C1731      C1732   1.404       .  A
C1731      C1736   1.393       .  A
C1731      H1738   1.083       .  S
C1732      C1733   1.406       .  A
C1733      C1734   1.385       .  A
C1733      F1740   1.357       .  S
C1734      C1735   1.404       .  A
C1734      H1739   1.083       .  S
C1735      C1736   1.407       .  A
C1736      F1737   1.357       .  S
C1741      C1742   1.407       .  A
C1741      C1746   1.400       .  A
C1741      H1748   1.083       .  S
C1742      C1743   1.411   1_565  A
C1743      C1744   1.398       .  A
C1743      F1750   1.356       .  S
C1744      C1745   1.406   1_545  A
C1744      H1749   1.083       .  S
C1745      C1746   1.411       .  A
C1746      F1747   1.356       .  S
C1751      C1752   1.408       .  A
C1751      C1756   1.405       .  A
C1751      H1758   1.083       .  S
C1752      C1753   1.411       .  A
C1753      C1754   1.397       .  A
C1753      F1760   1.355       .  S
C1754      C1755   1.404       .  A
C1754      H1759   1.083       .  S
C1755      C1756   1.412       .  A
C1756      F1757   1.357       .  S
C1761      C1762   1.406       .  A
C1761      C1766   1.399       .  A
C1761      H1768   1.083       .  S
C1762      C1763   1.411       .  A
C1763      C1764   1.404       .  A
C1763      F1770   1.357       .  S
C1764      C1765   1.408       .  A
C1764      H1769   1.083       .  S
C1765      C1766   1.412       .  A
C1766      F1767   1.357       .  S
C1771      C1772   1.404   1_545  A
C1771      C1776   1.392   1_556  A
C1771      H1778   1.083       .  S
C1772      C1773   1.409       .  A
C1773      C1774   1.392   1_556  A
C1773      F1780   1.356       .  S
C1774      C1775   1.403       .  A
C1774      H1779   1.083       .  S
C1775      C1776   1.410   1_565  A
C1776      F1777   1.356       .  S
C1781      C1782   1.401       .  A
C1781      C1786   1.393       .  A
C1781      H1788   1.084       .  S
C1782      C1783   1.403       .  A
C1783      C1784   1.388       .  A
C1783      F1790   1.356       .  S
C1784      C1785   1.405       .  A
C1784      H1789   1.082       .  S
C1785      C1786   1.410       .  A
C1786      F1787   1.356       .  S
C1791      C1792   1.406       .  A
C1791      C1796   1.397       .  A
C1791      H1798   1.083       .  S
C1792      C1793   1.411       .  A
C1793      C1794   1.392       .  A
C1793      F1800   1.358       .  S
C1794      C1795   1.402       .  A
C1794      H1799   1.083       .  S
C1795      C1796   1.406       .  A
C1796      F1797   1.357       .  S
C1801      C1802   1.409   1_556  A
C1801      C1806   1.403       .  A
C1801      H1808   1.083       .  S
C1802      C1803   1.411       .  A
C1803      C1804   1.403       .  A
C1803      F1810   1.356       .  S
C1804      C1805   1.409       .  A
C1804      H1809   1.083       .  S
C1805      C1806   1.412   1_554  A
C1806      F1807   1.356       .  S
C1811      C1812   1.408       .  A
C1811      C1816   1.402       .  A
C1811      H1818   1.083       .  S
C1812      C1813   1.412       .  A
C1813      C1814   1.402       .  A
C1813      F1820   1.356       .  S
C1814      C1815   1.408       .  A
C1814      H1819   1.083       .  S
C1815      C1816   1.412       .  A
C1816      F1817   1.357       .  S
C1821      C1822   1.408       .  A
C1821      C1826   1.401       .  A
C1821      H1828   1.083       .  S
C1822      C1823   1.411       .  A
C1823      C1824   1.402       .  A
C1823      F1830   1.358       .  S
C1824      C1825   1.410       .  A
C1824      H1829   1.083       .  S
C1825      C1826   1.410       .  A
C1826      F1827   1.357       .  S
C1831      C1832   1.403   1_455  A
C1831      C1836   1.388       .  A
C1831      H1838   1.083       .  S
C1832      C1833   1.406   1_654  A
C1833      C1834   1.394       .  A
C1833      F1840   1.357       .  S
C1834      C1835   1.405   1_556  A
C1834      H1839   1.083       .  S
C1835      C1836   1.409       .  A
C1836      F1837   1.358       .  S
C1841      C1842   1.405       .  A
C1841      C1846   1.390       .  A
C1841      H1848   1.083       .  S
C1842      C1843   1.406       .  A
C1843      C1844   1.387       .  A
C1843      F1850   1.357       .  S
C1844      C1845   1.403       .  A
C1844      H1849   1.084       .  S
C1845      C1846   1.406       .  A
C1846      F1847   1.358       .  S
C1851      C1852   1.405       .  A
C1851      C1856   1.391       .  A
C1851      H1858   1.083       .  S
C1852      C1853   1.411       .  A
C1853      C1854   1.391       .  A
C1853      F1860   1.357       .  S
C1854      C1855   1.401       .  A
C1854      H1859   1.084       .  S
C1855      C1856   1.405       .  A
C1856      F1857   1.358       .  S
C1861      C1862   1.406   1_556  A
C1861      C1866   1.401       .  A
C1861      H1868   1.083       .  S
C1862      C1863   1.413       .  A
C1863      C1864   1.398       .  A
C1863      F1870   1.357       .  S
C1864      C1865   1.405       .  A
C1864      H1869   1.083       .  S
C1865      C1866   1.412   1_554  A
C1866      F1867   1.357       .  S
C1871      C1872   1.407       .  A
C1871      C1876   1.397       .  A
C1871      H1878   1.083       .  S
C1872      C1873   1.412       .  A
C1873      C1874   1.403       .  A
C1873      F1880   1.358       .  S
C1874      C1875   1.409       .  A
C1874      H1879   1.083       .  S
C1875      C1876   1.409       .  A
C1876      F1877   1.356       .  S
C1881      C1882   1.408       .  A
C1881      C1886   1.404       .  A
C1881      H1888   1.083       .  S
C1882      C1883   1.413       .  A
C1883      C1884   1.399       .  A
C1883      F1890   1.355       .  S
C1884      C1885   1.406       .  A
C1884      H1889   1.083       .  S
C1885      C1886   1.414       .  A
C1886      F1887   1.357       .  S
C1891      C1892   1.405   1_556  A
C1891      C1896   1.393       .  A
C1891      H1898   1.083       .  S
C1892      C1893   1.408       .  A
C1893      C1894   1.389       .  A
C1893      F1900   1.357       .  S
C1894      C1895   1.404   1_455  A
C1894      H1899   1.083       .  S
C1895      C1896   1.407   1_654  A
C1896      F1897   1.357       .  S
C1901      C1902   1.405       .  A
C1901      C1906   1.393       .  A
C1901      H1908   1.083       .  S
C1902      C1903   1.409       .  A
C1903      C1904   1.391       .  A
C1903      F1910   1.357       .  S
C1904      C1905   1.403       .  A
C1904      H1909   1.084       .  S
C1905      C1906   1.406       .  A
C1906      F1907   1.358       .  S
C1911      C1912   1.400       .  A
C1911      C1916   1.387       .  A
C1911      H1918   1.083       .  S
C1912      C1913   1.405       .  A
C1913      C1914   1.396       .  A
C1913      F1920   1.358       .  S
C1914      C1915   1.407       .  A
C1914      H1919   1.083       .  S
C1915      C1916   1.411       .  A
C1916      F1917   1.358       .  S
