geometry optimzed in LAMMPS
_audit_creation_date              2020-11-30 
_audit_creation_method            'lammps2cif' 
_symmetry_space_group_name_H-M    'P1' 
_symmetry_Int_Tables_number       1 
_symmetry_cell_setting            triclinic 
loop_ 
_symmetry_equiv_pos_as_xyz 
  x,y,z 
_cell_length_a                    26.0985206 
_cell_length_b                    26.039192632734448 
_cell_length_c                    26.057704038162473 
_cell_angle_alpha                 90.46523568402759 
_cell_angle_beta                  90.40721835810474 
_cell_angle_gamma                 90.5830077862679 
loop_ 
_atom_site_label 
_atom_site_type_symbol 
_atom_site_fract_x 
_atom_site_fract_y 
_atom_site_fract_z 
_atom_site_charge 
O1          O  0.80811828  0.66268877  0.88628199    -0.88100
C2          C  0.81237577  0.70637011  0.59000151     1.12000
O3          O  0.74000525  0.70570102  0.80153220    -1.35900
O4          O  0.90439823  0.74345191  0.69805842    -0.89600
O5          O  0.73545261  0.68739172  0.92237174    -0.90200
O6          O  0.76267679  0.81059276  0.87132788    -0.79100
O7          O  0.84658019  0.69766341  0.78284394    -1.01100
C8          C  0.79138085  0.88356950  0.73689955     1.22000
O9          O  0.69734141  0.79270305  0.75857156    -1.36000
Mn10       Mn  0.70600210  0.71527261  0.72445982     1.82100
O11         O  0.80264298  0.86240964  0.77904595    -0.78100
O12         O  0.86886806  0.81547763  0.67113957    -0.87500
C13         C  0.69068807  0.77123504  0.62427878     1.13100
C14         C  0.90812496  0.79060509  0.68631997     1.07800
O15         O  0.62682909  0.68878945  0.73812526    -0.79100
O16         O  0.78321804  0.74887187  0.71484847    -1.32800
O17         O  0.63214941  0.72439473  0.81057088    -0.98300
C18         C  0.67055986  0.91700945  0.80179519     1.06500
Mn19       Mn  0.78905762  0.80466434  0.65736406     1.48600
O20         O  0.65426343  0.87811918  0.82684349    -0.87500
Mn21       Mn  0.68448580  0.69896760  0.85945185     1.49600
O22         O  0.74430757  0.58449518  0.81864291    -0.91400
C23         C  0.87345737  0.72762374  0.80653359     1.19700
C24         C  0.69679030  0.58085846  0.82885887     1.11800
Mn25       Mn  0.77451041  0.78319110  0.79216530     1.81000
O26         O  0.71515515  0.80122032  0.65062450    -0.96500
Mn27       Mn  0.79543256  0.64791357  0.80665858     1.49300
C28         C  0.78295318  0.67759958  0.92565989     1.08300
Mn29       Mn  0.69263562  0.85052165  0.70307581     1.49900
C30         C  0.57317906  0.82238626  0.71712204     1.11200
O31         O  0.68953016  0.77479590  0.86777154    -1.02300
O32         O  0.80005465  0.75336418  0.59417054    -0.92000
C33         C  0.72121285  0.79919879  0.89365513     1.22500
O34         O  0.76673261  0.85695908  0.70709381    -1.02700
O35         O  0.82759490  0.68087418  0.62909485    -0.90100
O36         O  0.61257710  0.83711237  0.69172178    -0.89700
O37         O  0.67159123  0.61990052  0.84416432    -0.89700
Mn38       Mn  0.84063454  0.69279777  0.70919828     1.47900
O39         O  0.67883078  0.72911087  0.64549142    -0.78200
C40         C  0.60555831  0.70064882  0.78014369     1.15500
O41         O  0.85305985  0.76982207  0.81851605    -0.76900
O42         O  0.71904376  0.63582643  0.69714173    -0.76500
Mn43       Mn  0.63939291  0.79891965  0.81417184     1.51100
O44         O  0.68213647  0.91327166  0.75462985    -0.88900
O45         O  0.79126069  0.64063098  0.73262035    -0.96400
O46         O  0.57659086  0.81079295  0.76416124    -0.91400
C47         C  0.76106022  0.61433649  0.70844967     1.13300
O48         O  0.88529960  0.65543159  0.19095523    -0.88100
C49         C  0.58889599  0.70582353  0.17940550     1.12000
O50         O  0.79953712  0.69483935  0.25758859    -1.35900
O51         O  0.69826896  0.73876410  0.09255565    -0.89600
O52         O  0.92134795  0.68364210  0.26264540    -0.90200
O53         O  0.86948520  0.79843524  0.24205573    -0.79100
O54         O  0.78159614  0.68413184  0.14537117    -1.01100
C55         C  0.73855696  0.87390983  0.21380605     1.22000
O56         O  0.75669394  0.78043185  0.30218756    -1.36000
Mn57       Mn  0.72283010  0.70399273  0.28989052     1.82100
O58         O  0.77935626  0.85185447  0.19981735    -0.78100
O59         O  0.68297709  0.81331514  0.13040792    -0.87500
C60         C  0.62127143  0.75898644  0.30178531     1.13100
C61         C  0.69613162  0.78752712  0.09086303     1.07800
O62         O  0.73809943  0.67556147  0.36851491    -0.79100
O63         O  0.71450762  0.73875672  0.21319537    -1.32800
O64         O  0.81168220  0.71239915  0.37008476    -0.98300
C65         C  0.79011048  0.90612259  0.33374826     1.06500
Mn66       Mn  0.66072396  0.79765879  0.20700869     1.48600
O67         O  0.81893860  0.86847104  0.34585297    -0.87500
Mn68       Mn  0.85863695  0.68904633  0.31381024     1.49600
O69         O  0.81083592  0.57307340  0.25199944    -0.91400
C70         C  0.80665635  0.71605660  0.12194244     1.19700
C71         C  0.82024151  0.56965410  0.29964560     1.11800
Mn72       Mn  0.79133508  0.77173109  0.22527700     1.81000
O73         O  0.64924830  0.78795140  0.27907236    -0.96500
Mn74       Mn  0.80487221  0.63635180  0.20093403     1.49300
C75         C  0.92378843  0.67609496  0.21470973     1.08300
Mn76       Mn  0.69851172  0.83532717  0.30895307     1.49900
C77         C  0.70840891  0.79985655  0.42552399     1.11200
O78         O  0.86666947  0.76430095  0.31514627    -1.02300
O79         O  0.59601792  0.75305852  0.18810853    -0.92000
C80         C  0.89170206  0.78825027  0.28425337     1.22500
O81         O  0.70897495  0.84657680  0.23678647    -1.02700
O82         O  0.62602612  0.67662799  0.16692026    -0.90100
O83         O  0.68257552  0.81348309  0.38602804    -0.89700
O84         O  0.84095175  0.60807965  0.32360129    -0.89700
Mn85       Mn  0.70599732  0.68445105  0.15308732     1.47900
O86         O  0.64253573  0.71751908  0.31560606    -0.78200
C87         C  0.77954199  0.68690722  0.39279208     1.15500
O88         O  0.81915080  0.75711093  0.14630723    -0.76900
O89         O  0.69498069  0.62608692  0.27222306    -0.76500
Mn90       Mn  0.81112207  0.78852812  0.36172081     1.51100
O91         O  0.74257940  0.89996004  0.32772856    -0.88900
O92         O  0.72950663  0.62842271  0.19921755    -0.96400
O93         O  0.75708286  0.79672329  0.42312409    -0.91400
C94         C  0.70475750  0.60385474  0.22977966     1.13300
O95         O  0.64790762  0.18019431  0.90081142    -0.88100
C96         C  0.68827437  0.17701949  0.60421305     1.12000
O97         O  0.68079921  0.24977905  0.81450720    -1.35900
O98         O  0.71383358  0.08578633  0.70653247    -0.89600
O99         O  0.66821823  0.25536086  0.93614924    -0.90200
O100        O  0.78324951  0.23501387  0.88484493    -0.79100
O101        O  0.67092471  0.13861026  0.79504935    -1.01100
C102        C  0.86023161  0.20225161  0.75602613     1.22000
O103        O  0.76687612  0.29332269  0.77132432    -1.36000
Mn104      Mn  0.69087268  0.28077976  0.73708696     1.82100
O105        O  0.83630790  0.19063377  0.79649867    -0.78100
O106        O  0.79299273  0.11479193  0.69445940    -0.87500
C107        C  0.74814163  0.29252930  0.63595235     1.13100
C108        C  0.76145605  0.07794802  0.70342541     1.07800
O109        O  0.66363178  0.35861563  0.75032092    -0.79100
O110        O  0.72418556  0.20412691  0.72971613    -1.32800
O111        O  0.69792320  0.36148409  0.82428915    -0.98300
C112        C  0.89225162  0.32673307  0.80621066     1.06500
Mn113      Mn  0.78187483  0.19439625  0.67462188     1.48600
O114        O  0.85376488  0.33954493  0.83398099    -0.87500
Mn115      Mn  0.67466164  0.30746449  0.87261308     1.49600
O116        O  0.56191355  0.23795401  0.83568257    -0.91400
C117        C  0.70163465  0.11446782  0.81942592     1.19700
C118        C  0.55488595  0.28549116  0.84255548     1.11800
Mn119      Mn  0.75704412  0.21721246  0.80665723     1.81000
O120        O  0.77633479  0.26850437  0.66365738    -0.96500
Mn121      Mn  0.62506834  0.19063821  0.82182255     1.49300
C122        C  0.66471761  0.20658288  0.93937734     1.08300
Mn123      Mn  0.82309270  0.29961698  0.71354959     1.49900
C124        C  0.78786544  0.41581865  0.72240358     1.11200
O125        O  0.74930182  0.30821429  0.88149562    -1.02300
O126        O  0.73628096  0.17811902  0.61030444    -0.92000
C127        C  0.77318761  0.27752872  0.90671817     1.22500
O128        O  0.83505724  0.22486866  0.72316360    -1.02700
O129        O  0.65819293  0.16792807  0.64196678    -0.90100
O130        O  0.80234931  0.37640187  0.69698231    -0.89700
O131        O  0.59228098  0.31517094  0.85731767    -0.89700
Mn132      Mn  0.66626505  0.14822972  0.72148285     1.47900
O133        O  0.70620156  0.30584359  0.65677342    -0.78200
C134        C  0.67419478  0.38368142  0.79121964     1.15500
O135        O  0.74194447  0.13872665  0.83383919    -0.76900
O136        O  0.61202766  0.26483920  0.71068076    -0.76500
Mn137      Mn  0.77258964  0.35382041  0.82552692     1.51100
O138        O  0.88689723  0.31831833  0.75882193    -0.88900
O139        O  0.61249651  0.19361170  0.74811477    -0.96400
O140        O  0.78218679  0.41364905  0.77077094    -0.91400
C141        C  0.58775454  0.22468493  0.72453005     1.13300
O142        O  0.16364176  0.35983298  0.88248583    -0.88100
C143        C  0.14174350  0.29493240  0.59998604     1.12000
O144        O  0.22416884  0.30789140  0.80074711    -1.35900
O145        O  0.05648314  0.26366763  0.71245702    -0.89600
O146        O  0.24282392  0.34797856  0.90931038    -0.90200
O147        O  0.20312764  0.20818059  0.87739082    -0.79100
O148        O  0.11526804  0.32009344  0.78862925    -1.01100
C149        C  0.17791596  0.12368373  0.73827102     1.22000
O150        O  0.26492599  0.22055567  0.76112238    -1.36000
Mn151      Mn  0.25683832  0.29639643  0.72486640     1.82100
O152        O  0.16288515  0.14691172  0.77947831    -0.78100
O153        O  0.09307464  0.19021018  0.69285208    -0.87500
C154        C  0.26658978  0.24051293  0.61916370     1.13100
C155        C  0.05470391  0.21497358  0.71047162     1.07800
O156        O  0.33981310  0.32206172  0.73971094    -0.79100
O157        O  0.17900632  0.26204145  0.71855271    -1.32800
O158        O  0.33256949  0.28405979  0.80894774    -0.98300
C159        C  0.28293473  0.09834267  0.80619740     1.06500
Mn160      Mn  0.16967167  0.20278697  0.66374781     1.48600
O161        O  0.29150716  0.13688118  0.83611908    -0.87500
Mn162      Mn  0.28482392  0.31851220  0.85193893     1.49600
O163        O  0.22520611  0.43086150  0.80834330    -0.91400
C164        C  0.09065120  0.29085197  0.81447064     1.19700
C165        C  0.27393797  0.43183537  0.80541378     1.11800
Mn166      Mn  0.18915878  0.23002574  0.79509912     1.81000
O167        O  0.24483287  0.20799733  0.64614440    -0.96500
Mn168      Mn  0.17064961  0.36873432  0.80461162     1.49300
C169        C  0.19584190  0.35159485  0.91742318     1.08300
Mn170      Mn  0.27411843  0.16388423  0.70425974     1.49900
C171        C  0.38817577  0.19099230  0.72861174     1.11200
O172        O  0.27461793  0.24631680  0.87515188    -1.02300
O173        O  0.14783590  0.24739532  0.60335494    -0.92000
C174        C  0.24274029  0.22422372  0.90230039     1.22500
O175        O  0.20103648  0.15135664  0.70894913    -1.02700
O176        O  0.12945852  0.32291439  0.63765742    -0.90100
O177        O  0.35108741  0.18520249  0.69660391    -0.89700
O178        O  0.29973334  0.39227941  0.81793519    -0.89700
Mn179      Mn  0.11912171  0.31677159  0.71559177     1.47900
O180        O  0.27981107  0.28147434  0.64344725    -0.78200
C181        C  0.36168495  0.30671669  0.78118113     1.15500
O182        O  0.11123470  0.24747856  0.82344233    -0.76900
O183        O  0.24071599  0.37485869  0.69616725    -0.76500
Mn184      Mn  0.31829045  0.21294978  0.82174106     1.51100
O185        O  0.28718985  0.10283972  0.75754331    -0.88900
O186        O  0.16908118  0.37069713  0.73205691    -0.96400
O187        O  0.38095618  0.19038030  0.77659715    -0.91400
C188        C  0.19788826  0.39578931  0.70643298     1.13300
O189        O  0.32177252  0.83534414  0.87200445    -0.88100
C190        C  0.28747177  0.82378216  0.57342876     1.12000
O191        O  0.28373953  0.76471810  0.78529631    -1.35900
O192        O  0.25197722  0.92760826  0.67929612    -0.89600
O193        O  0.30405831  0.76008952  0.90658473    -0.90200
O194        O  0.17962646  0.78464603  0.85289373    -0.79100
O195        O  0.29490304  0.87454191  0.76697800    -1.01100
C196        C  0.10672645  0.81318121  0.71419415     1.22000
O197        O  0.19615867  0.72074458  0.74076472    -1.36000
Mn198      Mn  0.27364496  0.72943736  0.70832821     1.82100
O199        O  0.12888042  0.82479680  0.75655396    -0.78100
O200        O  0.17847190  0.89214549  0.65344871    -0.87500
C201        C  0.21549134  0.71029273  0.60635912     1.13100
C202        C  0.20464658  0.93120546  0.67049656     1.07800
O203        O  0.30009507  0.64992550  0.72368581    -0.79100
O204        O  0.24123935  0.80594526  0.69734074    -1.32800
O205        O  0.26312900  0.65409187  0.79581696    -0.98300
C206        C  0.07084638  0.70076644  0.78412413     1.06500
Mn207      Mn  0.18609775  0.81050180  0.63748288     1.48600
O208        O  0.10974496  0.68571929  0.80922008    -0.87500
Mn209      Mn  0.29170187  0.70940444  0.84348709     1.49600
O210        O  0.40462061  0.77001959  0.80634561    -0.91400
C211        C  0.26400678  0.89978854  0.79107794     1.19700
C212        C  0.40759198  0.72131250  0.80975649     1.11800
Mn213      Mn  0.20704545  0.79784323  0.77374790     1.81000
O214        O  0.18484419  0.73555839  0.62994057    -0.96500
Mn215      Mn  0.34166166  0.82153126  0.79404805     1.49300
C216        C  0.30725639  0.80861328  0.91040245     1.08300
Mn217      Mn  0.13717248  0.71388197  0.68424828     1.49900
C218        C  0.16418932  0.59468102  0.70552380     1.11200
O219        O  0.21636646  0.71219751  0.85427456    -1.02300
O220        O  0.23936238  0.81633045  0.57568419    -0.92000
C221        C  0.19274249  0.74495570  0.87805575     1.22500
O222        O  0.13143209  0.78840339  0.68415266    -1.02700
O223        O  0.31140429  0.84327903  0.61231321    -0.90100
O224        O  0.15011226  0.63216481  0.67692559    -0.89700
O225        O  0.36844112  0.69532992  0.82345549    -0.89700
Mn226      Mn  0.29861946  0.86404644  0.69171816     1.47900
O227        O  0.25739847  0.70048911  0.62975838    -0.78200
C228        C  0.28784219  0.62782679  0.76536606     1.15500
O229        O  0.22177493  0.87720672  0.80064894    -0.76900
O230        O  0.35325047  0.74454601  0.68193733    -0.76500
Mn231      Mn  0.18711839  0.66527473  0.79864528     1.51100
O232        O  0.07403345  0.70625910  0.73587487    -0.88900
O233        O  0.35242406  0.81746138  0.71908610    -0.96400
O234        O  0.17335133  0.60135760  0.75252858    -0.91400
C235        C  0.37698892  0.78588474  0.69495092     1.13300
O236        O  0.61872219  0.13902019  0.33142097    -0.88100
C237        C  0.89925141  0.20848916  0.35771928     1.12000
O238        O  0.69952117  0.19246275  0.27132710    -1.35900
O239        O  0.78828653  0.23936931  0.43839752    -0.89600
O240        O  0.58485237  0.15847639  0.25595475    -0.90200
O241        O  0.62399454  0.29248175  0.29306711    -0.79100
O242        O  0.71256580  0.18108036  0.37994359    -1.01100
C243        C  0.76314521  0.37479604  0.31839940     1.22000
O244        O  0.74047370  0.27978610  0.23033503    -1.36000
Mn245      Mn  0.77596033  0.20407178  0.23925980     1.82100
O246        O  0.72154355  0.35254094  0.33310847    -0.78100
O247        O  0.80710063  0.31384761  0.40183062    -0.87500
C248        C  0.88247705  0.25951255  0.22951702     1.13100
C249        C  0.79104218  0.28814638  0.44053428     1.07800
O250        O  0.76037068  0.17789143  0.15743662    -0.79100
O251        O  0.78221897  0.23869640  0.31674482    -1.32800
O252        O  0.68990274  0.21499504  0.16312557    -0.98300
C253        C  0.70233444  0.40347804  0.20367170     1.06500
Mn254      Mn  0.83540690  0.29928824  0.32524653     1.48600
O255        O  0.67081164  0.36551042  0.19744984    -0.87500
Mn256      Mn  0.64506547  0.18315117  0.21158104     1.49600
O257        O  0.69487479  0.07060899  0.26977954    -0.91400
C258        C  0.68715933  0.21007520  0.40513039     1.19700
C259        C  0.69205952  0.06876687  0.22105273     1.11800
Mn260      Mn  0.70588445  0.27027519  0.30642610     1.81000
O261        O  0.85532246  0.29156944  0.25145415    -0.96500
Mn262      Mn  0.69696644  0.13159096  0.32493412     1.49300
C263        C  0.58090236  0.15021981  0.30323262     1.08300
Mn264      Mn  0.79892185  0.33556715  0.22210089     1.49900
C265        C  0.77605892  0.30777363  0.10673929     1.11200
O266        O  0.62606920  0.25665306  0.22036810    -1.02300
O267        O  0.89338404  0.25537697  0.34953155    -0.92000
C268        C  0.59922595  0.27792347  0.25290506     1.22500
O269        O  0.79071081  0.34715799  0.29423879    -1.02700
O270        O  0.86323113  0.17834364  0.36936825    -0.90100
O271        O  0.80808100  0.31452931  0.14403496    -0.89700
O272        O  0.67391791  0.10694180  0.19598585    -0.89700
Mn273      Mn  0.78532869  0.18447578  0.37726527     1.47900
O274        O  0.85790597  0.21874692  0.21591688    -0.78200
C275        C  0.71850009  0.19171582  0.13541613     1.15500
O276        O  0.67791201  0.25339574  0.38470661    -0.76900
O277        O  0.80501437  0.12609731  0.25597394    -0.76500
Mn278      Mn  0.68105049  0.28735876  0.17574764     1.51100
O279        O  0.75044302  0.39719400  0.20444962    -0.88900
O280        O  0.76991605  0.12912684  0.32831878    -0.96400
O281        O  0.72809522  0.30660023  0.11369862    -0.91400
C282        C  0.79589715  0.10487518  0.29902670     1.13300
O283        O  0.18497709  0.67697407  0.10978908    -0.88100
C284        C  0.18921632  0.71328770  0.40673604     1.12000
O285        O  0.25640500  0.71024253  0.19579930    -1.35900
O286        O  0.09863312  0.74013043  0.31038213    -0.89600
O287        O  0.25886397  0.70030067  0.07426032    -0.90200
O288        O  0.23820308  0.81617187  0.12980935    -0.79100
O289        O  0.14701955  0.69956715  0.21803520    -1.01100
C290        C  0.21461976  0.89383223  0.26280367     1.22000
O291        O  0.30103157  0.79372319  0.24151353    -1.36000
Mn292      Mn  0.29158221  0.71715078  0.27339678     1.82100
O293        O  0.20014176  0.86877343  0.22264747    -0.78100
O294        O  0.12975582  0.82005998  0.31812461    -0.87500
C295        C  0.30373246  0.77343224  0.37781614     1.13100
C296        C  0.09211592  0.78839363  0.31144036     1.07800
O297        O  0.37016423  0.69027183  0.25667600    -0.79100
O298        O  0.21541965  0.75156136  0.28348669    -1.32800
O299        O  0.36464736  0.72589896  0.18508132    -0.98300
C300        C  0.34079726  0.91078534  0.21040739     1.06500
Mn301      Mn  0.20771784  0.81040122  0.33913629     1.48600
O302        O  0.34988216  0.87540783  0.17870575    -0.87500
Mn303      Mn  0.31094838  0.70755057  0.13600625     1.49600
O304        O  0.24443532  0.59368160  0.16586829    -0.91400
C305        C  0.11942541  0.72947419  0.19460257     1.19700
C306        C  0.29176049  0.59090927  0.15852170     1.11800
Mn307      Mn  0.22338740  0.78687211  0.20767017     1.81000
O308        O  0.27973709  0.80201823  0.35086612    -0.96500
Mn309      Mn  0.19889784  0.65328743  0.18710075     1.49300
C310        C  0.21081044  0.69356949  0.07140982     1.08300
Mn311      Mn  0.31078979  0.84637332  0.30210460     1.49900
C312        C  0.42502604  0.80266111  0.28917199     1.11200
O313        O  0.31098658  0.78155087  0.13161399    -1.02300
O314        O  0.18982097  0.76163175  0.40097504    -0.92000
C315        C  0.28091035  0.80793184  0.10804244     1.22500
O316        O  0.23716192  0.86703470  0.29480513    -1.02700
O317        O  0.18307510  0.68225373  0.36880345    -0.90100
O318        O  0.38627709  0.81639226  0.31592744    -0.89700
O319        O  0.31916346  0.62928925  0.14675293    -0.89700
Mn320      Mn  0.16085795  0.69216199  0.29218761     1.47900
O321        O  0.31814310  0.73221425  0.35496494    -0.78200
C322        C  0.39061019  0.70108586  0.21377240     1.15500
O323        O  0.14158763  0.77165132  0.18173565    -0.76900
O324        O  0.27921534  0.63533266  0.29676850    -0.76500
Mn325      Mn  0.36042311  0.79827387  0.18635893     1.51100
O326        O  0.33688747  0.90406361  0.25785561    -0.88900
O327        O  0.20648534  0.63751986  0.26160022    -0.96400
O328        O  0.42265595  0.80342154  0.24028912    -0.91400
C329        C  0.23877758  0.61065435  0.28327284     1.13300
C330        C  0.53073148  0.15504174  0.32748139     0.03200
C331        C  0.52657951  0.14637989  0.38005759    -0.12900
C332        C  0.47897030  0.13098479  0.39789637     0.00700
C333        C  0.44085296  0.16252197  0.38195551    -0.11500
C334        C  0.44027852  0.17323314  0.32956595     0.03200
C335        C  0.48550866  0.16698075  0.30058916    -0.10900
H336        H  0.55938281  0.13861948  0.40301734     0.08800
H337        H  0.40652193  0.16337271  0.40465619     0.06300
H338        H  0.48547266  0.17180791  0.25932663     0.06200
C339        C  0.54327870  0.29347960  0.23682573     0.03200
C340        C  0.49330517  0.28535629  0.26176441    -0.12900
C341        C  0.44486567  0.29778287  0.23545709     0.00700
C342        C  0.44976772  0.32072571  0.18734381    -0.11500
C343        C  0.49649546  0.32776635  0.16156319     0.03200
C344        C  0.54169811  0.31351175  0.18696237    -0.10900
H345        H  0.49216231  0.26860296  0.29947807     0.08800
H346        H  0.41488280  0.33369392  0.17048648     0.06300
H347        H  0.57772027  0.31888868  0.16788668     0.06200
C348        C  0.21611726  0.45626552  0.30289125     0.03200
C349        C  0.16529634  0.46329412  0.31888029    -0.12900
C350        C  0.14309736  0.51170084  0.32896799     0.00700
C351        C  0.17252245  0.55565621  0.31997889    -0.11500
C352        C  0.22209566  0.55509643  0.30005146     0.03200
C353        C  0.24542208  0.50400965  0.29316494    -0.10900
H354        H  0.14268594  0.42898195  0.32494482     0.08800
H355        H  0.15672644  0.59252246  0.32815951     0.06300
H356        H  0.28405864  0.50152350  0.27891687     0.06200
C357        C  0.31627504  0.54113873  0.16428716     0.03200
C358        C  0.36847355  0.53635176  0.15433222    -0.12900
C359        C  0.38448961  0.48851168  0.13740268     0.00700
C360        C  0.36884520  0.45018512  0.16938717    -0.11500
C361        C  0.31698503  0.45055801  0.18227461     0.03200
C362        C  0.28894290  0.49625177  0.17681564    -0.10900
H363        H  0.39190489  0.56898880  0.14654481     0.08800
H364        H  0.39050083  0.41522954  0.16919634     0.06300
H365        H  0.24783660  0.49674282  0.18233188     0.06200
C366        C  0.78696647  0.46708005  0.69487776     0.03200
C367        C  0.75959956  0.51334631  0.70696870    -0.12900
C368        C  0.77990902  0.56223418  0.69172632     0.00700
C369        C  0.83044408  0.56248889  0.67334129    -0.11500
C370        C  0.85519638  0.51703071  0.65987299     0.03200
C371        C  0.82588913  0.47206911  0.65984817    -0.10900
H372        H  0.72379372  0.51213654  0.72650638     0.08800
H373        H  0.85068458  0.59845658  0.67138700     0.06300
H374        H  0.83881267  0.43810189  0.64038472     0.06200
C375        C  0.66804135  0.53003507  0.82326951     0.03200
C376        C  0.61664295  0.52928867  0.83748362    -0.12900
C377        C  0.59662728  0.48329507  0.85588359     0.00700
C378        C  0.60903143  0.43894953  0.82867305    -0.11500
C379        C  0.65602338  0.43673244  0.80347116     0.03200
C380        C  0.68893969  0.48143858  0.80863340    -0.10900
H381        H  0.59760322  0.56452735  0.84735659     0.08800
H382        H  0.58780734  0.40406889  0.83584567     0.06300
H383        H  0.72951647  0.47878676  0.80296922     0.06200
C384        C  0.44138896  0.19371855  0.70754159     0.03200
C385        C  0.44612339  0.17169118  0.65956885    -0.12900
C386        C  0.49124237  0.14655350  0.64921749     0.00700
C387        C  0.53612561  0.17186336  0.66511205    -0.11500
C388        C  0.53549452  0.20778327  0.70516762     0.03200
C389        C  0.48806255  0.20942392  0.73296356    -0.10900
H390        H  0.41236073  0.16333033  0.63681366     0.08800
H391        H  0.57186691  0.16105241  0.65019170     0.06300
H392        H  0.48781578  0.21935964  0.77300330     0.06200
C393        C  0.41139414  0.32539557  0.80849471     0.03200
C394        C  0.46341610  0.30906296  0.79982921    -0.12900
C395        C  0.49954130  0.30438924  0.84250113     0.00700
C396        C  0.48110921  0.31449849  0.89114265    -0.11500
C397        C  0.43724978  0.34403447  0.89823779     0.03200
C398        C  0.40234291  0.34690565  0.85739263    -0.10900
H399        H  0.47509047  0.30113184  0.76107875     0.08800
H400        H  0.50511263  0.30503876  0.92353076     0.06300
H401        H  0.36606907  0.36322201  0.86497874     0.06200
N402        N  0.43599496  0.57076525  0.93429542    -0.36500
N403        N  0.40266574  0.46736487  0.94928888    -0.57100
N404        N  0.50562971  0.43864255  0.91938355    -0.36500
N405        N  0.53946645  0.54549919  0.94515380    -0.57100
C406        C  0.38517581  0.57662824  0.93538760     0.27100
C407        C  0.45801229  0.61676076  0.94413968     0.27100
C408        C  0.48545015  0.40349339  0.95096855     0.27100
C409        C  0.55611040  0.43938008  0.92848350     0.27100
C410        C  0.35636813  0.48902124  0.94474606     0.35700
C411        C  0.39577140  0.41612118  0.94859736     0.35700
C412        C  0.54714754  0.59608993  0.94133981     0.35700
C413        C  0.58515050  0.52320285  0.94186151     0.35700
C414        C  0.37336387  0.62762885  0.94452499    -0.21800
C415        C  0.41984529  0.65314643  0.95122700    -0.21800
C416        C  0.52398266  0.38042551  0.97893802    -0.21800
C417        C  0.56909503  0.40419663  0.96513703    -0.21800
C418        C  0.31873221  0.45076521  0.94560772    -0.22900
C419        C  0.34407225  0.40435027  0.94873850    -0.22900
C420        C  0.59917952  0.60712011  0.94357681    -0.22900
C421        C  0.62352506  0.56037036  0.94417456    -0.22800
C422        C  0.35128985  0.53734541  0.92089417    -0.18200
C423        C  0.50722793  0.62820324  0.92597447    -0.18200
C424        C  0.58758780  0.47860549  0.91222664    -0.18200
C425        C  0.43702870  0.38231606  0.94166440    -0.18200
H426        H  0.33568439  0.64459336  0.94523748     0.14700
H427        H  0.42517742  0.69429367  0.95484024     0.14700
H428        H  0.52022487  0.34702357  0.00300470     0.14700
H429        H  0.60733343  0.39546031  0.97824706     0.14700
H430        H  0.27809318  0.45555232  0.93886956     0.13000
H431        H  0.32724404  0.36631338  0.94802688     0.13000
H432        H  0.61777684  0.64441924  0.94287737     0.13000
H433        H  0.66417075  0.55450302  0.93908731     0.13000
H434        H  0.45369442  0.53918915  0.91768521     0.26300
H435        H  0.48631187  0.45982617  0.89153446     0.26200
N436        N  0.43655551  0.53326206  0.04416387    -0.36500
N437        N  0.54294001  0.54391647  0.06027802    -0.57100
N438        N  0.54538685  0.43676582  0.09900093    -0.36500
N439        N  0.44807271  0.42038966  0.07125088    -0.57100
C440        C  0.43813784  0.58409299  0.05322783     0.27100
C441        C  0.38794621  0.51790069  0.04921911     0.27100
C442        C  0.59236439  0.45139651  0.08392547     0.27100
C443        C  0.54377943  0.38499718  0.09978098     0.27100
C444        C  0.53035444  0.59310541  0.05453233     0.35700
C445        C  0.59295261  0.54172480  0.06977931     0.35700
C446        C  0.39820163  0.42894452  0.06491356     0.35700
C447        C  0.45406126  0.37138044  0.08478947     0.35700
C448        C  0.38852329  0.60259900  0.05226299    -0.21800
C449        C  0.35645844  0.56038203  0.04884406    -0.21800
C450        C  0.62231052  0.40814226  0.07696128    -0.21800
C451        C  0.59101079  0.36584036  0.08554651    -0.21800
C452        C  0.57487966  0.62302618  0.05473512    -0.22900
C453        C  0.61495732  0.58998585  0.06441000    -0.22900
C454        C  0.37174460  0.38289091  0.06869322    -0.22900
C455        C  0.40756733  0.34553514  0.07949532    -0.22800
C456        C  0.48242043  0.60956518  0.07203004    -0.18200
C457        C  0.37873454  0.47616888  0.08079459    -0.18200
C458        C  0.49904538  0.35621098  0.11099409    -0.18200
C459        C  0.61190534  0.50009956  0.09696549    -0.18200
H460        H  0.37623169  0.64207547  0.05460431     0.14700
H461        H  0.31537020  0.56062136  0.05409086     0.14700
H462        H  0.66299296  0.40744034  0.06923440     0.14700
H463        H  0.60181273  0.32594024  0.08216171     0.14700
H464        H  0.57724294  0.66455963  0.05530538     0.13000
H465        H  0.65445945  0.60098883  0.07170417     0.13000
H466        H  0.33067565  0.37829079  0.06880023     0.13000
H467        H  0.39940165  0.30572982  0.08829026     0.13000
H468        H  0.46652094  0.50763788  0.04514985     0.26300
H469        H  0.51830340  0.46135520  0.11498441     0.26200
C470        C  0.16670598  0.54054960  0.68426038     0.03200
C471        C  0.13952979  0.53065901  0.63975263    -0.12900
C472        C  0.10948321  0.48558013  0.63759103     0.00700
C473        C  0.13044466  0.44287600  0.66172222    -0.11500
C474        C  0.17740828  0.44629188  0.68772775     0.03200
C475        C  0.18627005  0.49615941  0.70975046    -0.10900
H476        H  0.13412510  0.56140451  0.61330655     0.08800
H477        H  0.11054406  0.40720681  0.66223104     0.06300
H478        H  0.20130211  0.49952907  0.74798880     0.06200
C479        C  0.30326568  0.48239405  0.79924564     0.03200
C480        C  0.29268914  0.52685290  0.76820920    -0.12900
C481        C  0.30604707  0.57727759  0.78689644     0.00700
C482        C  0.32300272  0.58029412  0.83848229    -0.11500
C483        C  0.33702505  0.53636444  0.86547767     0.03200
C484        C  0.33775820  0.49006788  0.83863950    -0.10900
H485        H  0.27659833  0.52293173  0.73036202     0.08800
H486        H  0.32387787  0.61690344  0.85804749     0.06300
H487        H  0.35627219  0.45701220  0.85469946     0.06200
C488        C  0.52159793  0.82155709  0.69018914     0.03200
C489        C  0.47416534  0.80164770  0.70883010    -0.12900
C490        C  0.42853116  0.80529353  0.67828222     0.00700
C491        C  0.42778144  0.84914565  0.64680040    -0.11500
C492        C  0.47311575  0.87491381  0.63410403     0.03200
C493        C  0.51857138  0.84876398  0.64501864    -0.10900
H494        H  0.47164927  0.78938534  0.74773785     0.08800
H495        H  0.39213534  0.86587200  0.63703026     0.06300
H496        H  0.55345326  0.85760305  0.62502691     0.06200
C497        C  0.55327498  0.68469995  0.79871814     0.03200
C498        C  0.50499130  0.70181855  0.77922684    -0.12900
C499        C  0.45885618  0.69313965  0.80824267     0.00700
C500        C  0.46267609  0.65645332  0.84569472    -0.11500
C501        C  0.50844352  0.65023538  0.87300288     0.03200
C502        C  0.55354184  0.66417779  0.84819594    -0.10900
H503        H  0.50441627  0.71804864  0.74174380     0.08800
H504        H  0.42790662  0.63770396  0.85733764     0.06300
H505        H  0.58968703  0.66004011  0.86687092     0.06200
C506        C  0.79759520  0.66876094  0.44415214     0.03200
C507        C  0.84154216  0.63745579  0.44339289    -0.12900
C508        C  0.86634543  0.62409895  0.48895053     0.00700
C509        C  0.83936224  0.63441990  0.53435810    -0.11500
C510        C  0.81204235  0.67958304  0.53788447     0.03200
C511        C  0.79226519  0.69828700  0.49046635    -0.10900
H512        H  0.85911383  0.62826426  0.40775018     0.08800
H513        H  0.84742446  0.61382342  0.56906928     0.06300
H514        H  0.77851003  0.73669564  0.48847012     0.06200
C515        C  0.67478255  0.79019931  0.57214853     0.03200
C516        C  0.65656771  0.84077709  0.57232608    -0.12900
C517        C  0.64389757  0.86550483  0.52676317     0.00700
C518        C  0.64497308  0.83625501  0.48176079    -0.11500
C519        C  0.68043065  0.79790872  0.47700341     0.03200
C520        C  0.69063657  0.76979525  0.52349866    -0.10900
H521        H  0.65371577  0.86101727  0.60826961     0.08800
H522        H  0.62555028  0.84855391  0.44766297     0.06300
H523        H  0.70772478  0.73265101  0.52292506     0.06200
C524        C  0.47665358  0.79710003  0.31674916     0.03200
C525        C  0.48550080  0.83655625  0.35088069    -0.12900
C526        C  0.53346169  0.86085831  0.35340657     0.00700
C527        C  0.57575992  0.83272544  0.33782289    -0.11500
C528        C  0.57100472  0.78181811  0.31948361     0.03200
C529        C  0.52002991  0.76456878  0.30640064    -0.10900
H530        H  0.45249827  0.85284185  0.36901033     0.08800
H531        H  0.61277752  0.85079225  0.33876381     0.06300
H532        H  0.51482103  0.72664755  0.29071035     0.06200
C533        C  0.44148686  0.68350436  0.19322328     0.03200
C534        C  0.43832590  0.65481390  0.14780399    -0.12900
C535        C  0.48187565  0.63457510  0.12440278     0.00700
C536        C  0.52703584  0.63903693  0.15321710    -0.11500
C537        C  0.53524915  0.68399357  0.18055203     0.03200
C538        C  0.49034365  0.70815841  0.20015070    -0.10900
H539        H  0.40204723  0.65203315  0.13020795     0.08800
H540        H  0.55846684  0.61387751  0.14675238     0.06300
H541        H  0.49271613  0.74661711  0.21493682     0.06200
N542        N  0.46828442  0.93175455  0.42936956    -0.36500
N543        N  0.57452733  0.93675360  0.45420380    -0.57100
N544        N  0.54626779  0.93703824  0.55808547    -0.36500
N545        N  0.44106564  0.95406326  0.53195504    -0.57100
C546        C  0.49011449  0.93773773  0.38334297     0.27100
C547        C  0.41785344  0.93880894  0.42408288     0.27100
C548        C  0.59720343  0.93775241  0.56374030     0.27100
C549        C  0.52516860  0.94665107  0.60362547     0.27100
C550        C  0.57958577  0.92892123  0.40370325     0.35700
C551        C  0.62145252  0.94071301  0.47530456     0.35700
C552        C  0.39381155  0.95572162  0.51119265     0.35700
C553        C  0.43583528  0.94857010  0.58288433     0.35700
C554        C  0.45215217  0.94810537  0.34712572    -0.21800
C555        C  0.40595500  0.94807387  0.37314717    -0.21800
C556        C  0.60991967  0.94687749  0.61474751    -0.21800
C557        C  0.56390572  0.95265401  0.64029517    -0.21800
C558        C  0.63090004  0.93218089  0.39059793    -0.22900
C559        C  0.65769009  0.93965608  0.43629908    -0.22900
C560        C  0.35821340  0.96008618  0.55045416    -0.22900
C561        C  0.38494905  0.95394494  0.59605941    -0.22800
C562        C  0.53744654  0.91506558  0.37246091    -0.18200
C563        C  0.38375581  0.92963584  0.46415992    -0.18200
C564        C  0.47565707  0.92882399  0.61347716    -0.18200
C565        C  0.62949505  0.92083942  0.52479552    -0.18200
H566        H  0.45677727  0.94984369  0.30593013     0.14700
H567        H  0.36816375  0.95230309  0.35644630     0.14700
H568        H  0.64782182  0.94720683  0.63190229     0.14700
H569        H  0.55918615  0.95557694  0.68144655     0.14700
H570        H  0.64731761  0.92819263  0.35283293     0.13000
H571        H  0.69886014  0.93763425  0.44100879     0.13000
H572        H  0.31693729  0.95818693  0.54632413     0.13000
H573        H  0.36839762  0.95017150  0.63381805     0.13000
H574        H  0.48459201  0.91239730  0.45990531     0.26300
H575        H  0.52702844  0.91866533  0.52823284     0.26200
N576        N  0.52227162  0.04485638  0.45885340    -0.36500
N577        N  0.53566183  0.05248793  0.56454991    -0.57100
N578        N  0.42535029  0.09223993  0.56265873    -0.36500
N579        N  0.40934076  0.06249842  0.46484282    -0.57100
C580        C  0.57348111  0.04842937  0.46032867     0.27100
C581        C  0.50781669  0.04442525  0.40971772     0.27100
C582        C  0.44092784  0.07636417  0.60905501     0.27100
C583        C  0.37378111  0.08868366  0.56079996     0.27100
C584        C  0.58523310  0.05248568  0.55202298     0.35700
C585        C  0.53222299  0.06710234  0.61340006     0.35700
C586        C  0.41840565  0.05929973  0.41467072     0.35700
C587        C  0.36007100  0.07455442  0.47113386     0.35700
C588        C  0.59253476  0.04293517  0.41119177    -0.21800
C589        C  0.55065787  0.03974254  0.37887019    -0.21800
C590        C  0.39818007  0.06451295  0.63843568    -0.21800
C591        C  0.35547221  0.07150817  0.60741144    -0.21800
C592        C  0.61466088  0.05917379  0.59637743    -0.22900
C593        C  0.58059131  0.06835516  0.63574262    -0.22900
C594        C  0.37268651  0.06378300  0.38799562    -0.22900
C595        C  0.33483567  0.07131190  0.42417257    -0.22800
C596        C  0.59967564  0.06900794  0.50281019    -0.18200
C597        C  0.46641432  0.07434521  0.39613120    -0.18200
C598        C  0.34452882  0.09981639  0.51653243    -0.18200
C599        C  0.48832805  0.09249624  0.62956097    -0.18200
H600        H  0.63219900  0.04375459  0.39944394     0.14700
H601        H  0.55170724  0.04206878  0.33743758     0.14700
H602        H  0.39785146  0.05516925  0.67883166     0.14700
H603        H  0.31587043  0.06532961  0.61800249     0.14700
H604        H  0.65582585  0.06433476  0.59857402     0.13000
H605        H  0.59056704  0.07977498  0.67460561     0.13000
H606        H  0.36842823  0.06640735  0.34692059     0.13000
H607        H  0.29515887  0.08029610  0.41621616     0.13000
H608        H  0.49765442  0.05590426  0.48765837     0.26300
H609        H  0.44856048  0.11101351  0.53608031     0.26200
C610        C  0.19880740  0.68987655  0.55420727     0.03200
C611        C  0.20438150  0.71650097  0.50664640    -0.12900
C612        C  0.19065763  0.69098419  0.45948065     0.00700
C613        C  0.16697520  0.64353834  0.46365920    -0.11500
C614        C  0.13689251  0.63666439  0.50654313     0.03200
C615        C  0.15880659  0.65341750  0.55345379    -0.10900
H616        H  0.21428400  0.75661056  0.50673855     0.08800
H617        H  0.16009940  0.62009157  0.42990171     0.06300
H618        H  0.14246247  0.64287462  0.58902402     0.06200
C619        C  0.32321623  0.79761108  0.42815616     0.03200
C620        C  0.30647907  0.78382772  0.47870815    -0.12900
C621        C  0.31633664  0.81733354  0.52232785     0.00700
C622        C  0.35418530  0.85353143  0.51498593    -0.11500
C623        C  0.36062145  0.87640047  0.46716108     0.03200
C624        C  0.34540736  0.84743006  0.42376731    -0.10900
H625        H  0.28981209  0.74666819  0.48350057     0.08800
H626        H  0.37406803  0.86762019  0.54827296     0.06300
H627        H  0.34977045  0.86422031  0.38643502     0.06200
C628        C  0.28224902  0.22498384  0.56266795     0.03200
C629        C  0.30144117  0.17485142  0.56013779    -0.12900
C630        C  0.31699090  0.15083309  0.51449122     0.00700
C631        C  0.31151487  0.17789890  0.46811311    -0.11500
C632        C  0.28832833  0.22584726  0.46363453     0.03200
C633        C  0.27572204  0.25124388  0.51287028    -0.10900
H634        H  0.30550323  0.15437920  0.59569910     0.08800
H635        H  0.32588559  0.16223774  0.43313650     0.06300
H636        H  0.26040448  0.28951450  0.51252389     0.06200
C637        C  0.17206865  0.32188180  0.46069609     0.03200
C638        C  0.16110834  0.29261934  0.50503900    -0.12900
C639        C  0.15086699  0.31971591  0.55084414     0.00700
C640        C  0.14694982  0.37311704  0.54791440    -0.11500
C641        C  0.13633333  0.39300364  0.50017652     0.03200
C642        C  0.17038310  0.37549713  0.46424583    -0.10900
H643        H  0.16009102  0.25102102  0.50373715     0.08800
H644        H  0.13879622  0.39600100  0.58062836     0.06300
H645        H  0.17683051  0.39924877  0.43091041     0.06200
C646        C  0.81392246  0.51778000  0.32761483     0.03200
C647        C  0.85040571  0.50940915  0.36475129    -0.12900
C648        C  0.87030743  0.46062685  0.37361896     0.00700
C649        C  0.83910436  0.41847357  0.35927367    -0.11500
C650        C  0.78938822  0.42463141  0.33736129     0.03200
C651        C  0.77812174  0.47552298  0.31954155    -0.10900
H652        H  0.86501709  0.54249868  0.38429863     0.08800
H653        H  0.85426421  0.38065848  0.36400402     0.06300
H654        H  0.74094988  0.48179874  0.30380004     0.06200
C655        C  0.68169607  0.45726471  0.20518249     0.03200
C656        C  0.63469376  0.46310127  0.18170991    -0.12900
C657        C  0.62862181  0.50674444  0.15175399     0.00700
C658        C  0.64736233  0.55289551  0.17303753    -0.11500
C659        C  0.68381723  0.55228971  0.21260946     0.03200
C660        C  0.70873870  0.50386697  0.21850449    -0.10900
H661        H  0.61088921  0.42956792  0.17520102     0.08800
H662        H  0.63826075  0.58878362  0.15648987     0.06300
H663        H  0.74886451  0.50304971  0.22784382     0.06200
N664        N  0.92590075  0.41986176  0.48400369    -0.36500
N665        N  0.92961999  0.44466086  0.59093977    -0.57100
N666        N  0.92856491  0.54859502  0.56264921    -0.36500
N667        N  0.94625339  0.52254366  0.45754419    -0.57100
C668        C  0.92997807  0.37330269  0.50561521     0.27100
C669        C  0.93011748  0.41446524  0.43294070     0.27100
C670        C  0.92757270  0.55451207  0.61371374     0.27100
C671        C  0.93756527  0.59453472  0.54172348     0.27100
C672        C  0.92222767  0.39396717  0.59553713     0.35700
C673        C  0.93131523  0.46579267  0.63805310     0.35700
C674        C  0.94988480  0.50177241  0.41039272     0.35700
C675        C  0.94128486  0.57351106  0.45243168     0.35700
C676        C  0.93667486  0.33689395  0.46691924    -0.21800
C677        C  0.93587522  0.36309357  0.42070167    -0.21800
C678        C  0.93485546  0.60582745  0.62647965    -0.21800
C679        C  0.94127243  0.63141394  0.58052936    -0.21800
C680        C  0.92354002  0.38088994  0.64696351    -0.22900
C681        C  0.92948026  0.42664185  0.67412592    -0.22900
C682        C  0.95677817  0.54127949  0.37525459    -0.22900
C683        C  0.94961554  0.58700623  0.40193422    -0.22800
C684        C  0.90685940  0.36334771  0.55329425    -0.18200
C685        C  0.92241735  0.45563741  0.39922178    -0.18200
C686        C  0.92038364  0.60395847  0.49193275    -0.18200
C687        C  0.91055715  0.51517569  0.64559517    -0.18200
H688        H  0.93607619  0.29559758  0.47122690     0.14700
H689        H  0.93752198  0.34624909  0.38268669     0.14700
H690        H  0.93411734  0.62311175  0.66435902     0.14700
H691        H  0.94336099  0.67262213  0.57576353     0.14700
H692        H  0.91854100  0.34315089  0.66325358     0.13000
H693        H  0.92550182  0.43120684  0.71523026     0.13000
H694        H  0.95675142  0.53733315  0.33386463     0.13000
H695        H  0.94656725  0.62484733  0.38540424     0.13000
H696        H  0.90857568  0.45040039  0.50084860     0.26300
H697        H  0.91122221  0.51898424  0.54353662     0.26200
N698        N  0.05200195  0.54568143  0.54247551    -0.36500
N699        N  0.06705967  0.55954486  0.43175973    -0.57100
N700        N  0.09080095  0.45837249  0.42481770    -0.36500
N701        N  0.03480475  0.44108755  0.53419657    -0.57100
C702        C  0.05798938  0.59664273  0.54045298     0.27100
C703        C  0.04339225  0.53318871  0.59164123     0.27100
C704        C  0.07475243  0.47016924  0.37760258     0.27100
C705        C  0.07185573  0.41198629  0.43510414     0.27100
C706        C  0.06460304  0.60793123  0.44906038     0.35700
C707        C  0.07564933  0.56026786  0.38087015     0.35700
C708        C  0.03965677  0.44124949  0.58523851     0.35700
C709        C  0.04289959  0.39324683  0.51785916     0.35700
C710        C  0.05143174  0.61806631  0.58864833    -0.21800
C711        C  0.04201333  0.57772878  0.62129831    -0.21800
C712        C  0.04809588  0.42925187  0.35556741    -0.21800
C713        C  0.04652413  0.39157151  0.39281937    -0.21800
C714        C  0.06669247  0.64082380  0.40727444    -0.22900
C715        C  0.07266760  0.61041076  0.36373323    -0.22900
C716        C  0.03775350  0.39119282  0.60262517    -0.22900
C717        C  0.03860949  0.36043213  0.55931199    -0.22800
C718        C  0.08206397  0.62004732  0.49928494    -0.18200
C719        C  0.05821427  0.48544954  0.61083865    -0.18200
C720        C  0.08146581  0.38842050  0.48154507    -0.18200
C721        C  0.09089324  0.51518362  0.35409101    -0.18200
H722        H  0.05634328  0.65800776  0.59965004     0.14700
H723        H  0.04052018  0.58014443  0.66276698     0.14700
H724        H  0.03331843  0.42639147  0.31673171     0.14700
H725        H  0.03146692  0.35295347  0.38849711     0.14700
H726        H  0.06926900  0.68232249  0.40872041     0.13000
H727        H  0.07738425  0.62395772  0.32487603     0.13000
H728        H  0.03761245  0.37785137  0.64177797     0.13000
H729        H  0.04430878  0.31934926  0.55890948     0.13000
H730        H  0.06587326  0.52110648  0.51441612     0.26300
H731        H  0.11520797  0.48024129  0.44855024     0.26200
C732        C  0.77204238  0.31232482  0.58665083     0.03200
C733        C  0.82368284  0.32882381  0.59161455    -0.12900
C734        C  0.85160782  0.34684151  0.54970346     0.00700
C735        C  0.82628385  0.34842609  0.50218380    -0.11500
C736        C  0.78575637  0.31581233  0.49213242     0.03200
C737        C  0.75356251  0.30386676  0.53526813    -0.10900
H738        H  0.84234868  0.32650819  0.62829205     0.08800
H739        H  0.84280259  0.36760809  0.46980624     0.06300
H740        H  0.71506717  0.29003321  0.52944148     0.06200
C741        C  0.66890359  0.19039778  0.45625139     0.03200
C742        C  0.69199333  0.19954086  0.50563552    -0.12900
C743        C  0.66643201  0.18141991  0.55070047     0.00700
C744        C  0.62133053  0.15484694  0.54174008    -0.11500
C745        C  0.62039822  0.12277238  0.49870363     0.03200
C746        C  0.64169852  0.14385538  0.45419486    -0.10900
H747        H  0.73076628  0.21324374  0.50818436     0.08800
H748        H  0.59516315  0.14875755  0.57244912     0.06300
H749        H  0.64093133  0.12376886  0.41855132     0.06200
C750        C  0.82361079  0.69779598  0.07019393     0.03200
C751        C  0.79308926  0.70168608  0.02425955    -0.12900
C752        C  0.81084683  0.68038947  0.97703896     0.00700
C753        C  0.85629515  0.65378248  0.98032807    -0.11500
C754        C  0.86726536  0.62795907  0.02615669     0.03200
C755        C  0.85517563  0.65419294  0.07123086    -0.10900
H756        H  0.75487979  0.71573494  0.02615032     0.08800
H757        H  0.87612509  0.64465229  0.94542643     0.06300
H758        H  0.86506362  0.63768006  0.10708480     0.06200
C759        C  0.70277763  0.81596324  0.94535636     0.03200
C760        C  0.72557712  0.80432416  0.99379885    -0.12900
C761        C  0.69808208  0.81565617  0.04006381     0.00700
C762        C  0.65822063  0.84924009  0.03482858    -0.11500
C763        C  0.62720216  0.84559727  0.99120681     0.03200
C764        C  0.65099839  0.83051341  0.94590275    -0.10900
H765        H  0.76355716  0.78902177  0.99464742     0.08800
H766        H  0.64626939  0.86979940  0.06840445     0.06300
H767        H  0.62967782  0.82921809  0.91065294     0.06200
C768        C  0.01964027  0.70184716  0.81252006     0.03200
C769        C  0.01556261  0.66402252  0.84873672    -0.12900
C770        C  0.97114481  0.63417057  0.85150502     0.00700
C771        C  0.92555672  0.65832448  0.83898269    -0.11500
C772        C  0.92539432  0.70890683  0.82088222     0.03200
C773        C  0.97318088  0.72987146  0.80386144    -0.10900
H774        H  0.04919162  0.65381286  0.86919905     0.08800
H775        H  0.88975117  0.63819834  0.84264585     0.06300
H776        H  0.97301272  0.76732538  0.78734946     0.06200
C777        C  0.05421607  0.82921752  0.69659173     0.03200
C778        C  0.00800803  0.79980164  0.70420284    -0.12900
C779        C  0.95965839  0.81854715  0.68700886     0.00700
C780        C  0.96176864  0.86482609  0.66149446    -0.11500
C781        C  0.00512481  0.87489745  0.63210370     0.03200
C782        C  0.05248575  0.86178116  0.65383717    -0.10900
H783        H  0.00993092  0.76150972  0.71751262     0.08800
H784        H  0.92715304  0.88539769  0.65427452     0.06300
H785        H  0.08756577  0.87210761  0.63503946     0.06200
C786        C  0.67249412  0.96854698  0.82915747     0.03200
C787        C  0.64589842  0.97189822  0.87486532    -0.12900
C788        C  0.61773687  0.01658368  0.88439835     0.00700
C789        C  0.64074654  0.06268299  0.86949085    -0.11500
C790        C  0.68391696  0.06279859  0.83737351     0.03200
C791        C  0.69191996  0.01587450  0.80976513    -0.10900
H792        H  0.63833037  0.93720672  0.89592466     0.08800
H793        H  0.62259955  0.09807279  0.87834595     0.06300
H794        H  0.70760155  0.01710697  0.77221984     0.06200
C795        C  0.77819565  0.02337442  0.69643031     0.03200
C796        C  0.78998417  0.98479326  0.73415660    -0.12900
C797        C  0.80756822  0.93568293  0.71714640     0.00700
C798        C  0.82485191  0.93313831  0.66669597    -0.11500
C799        C  0.81158361  0.96964574  0.62992278     0.03200
C800        C  0.77912770  0.00866461  0.64535252    -0.10900
H801        H  0.78550120  0.99176872  0.77473234     0.08800
H802        H  0.84516406  0.89983380  0.65581319     0.06300
H803        H  0.76124243  0.03306176  0.61739374     0.06200
C804        C  0.26170902  0.20495007  0.95622091     0.03200
C805        C  0.31071211  0.18404386  0.95243860    -0.12900
C806        C  0.34087126  0.16984141  0.99411340     0.00700
C807        C  0.32047427  0.17634584  0.04426837    -0.11500
C808        C  0.27223367  0.19778459  0.05417204     0.03200
C809        C  0.24134962  0.21070188  0.00856559    -0.10900
H810        H  0.32585765  0.17917677  0.91482274     0.08800
H811        H  0.34176627  0.16362105  0.07732897     0.06300
H812        H  0.20390657  0.22724545  0.01385385     0.06200
C813        C  0.20639213  0.35212040  0.05688769     0.03200
C814        C  0.17704690  0.39470364  0.06610837    -0.12900
C815        C  0.14056924  0.40716962  0.03014796     0.00700
C816        C  0.13664188  0.37574408  0.98582530    -0.11500
C817        C  0.18018010  0.35038867  0.97034170     0.03200
C818        C  0.21440396  0.33465309  0.00773586    -0.10900
H819        H  0.18086625  0.41408311  0.10235236     0.08800
H820        H  0.10464254  0.37793751  0.95989094     0.06300
H821        H  0.24656663  0.31036344  0.99896383     0.06200
C822        C  0.70113244  0.01800119  0.19245856     0.03200
C823        C  0.73343353  0.97520798  0.20562996    -0.12900
C824        C  0.71661842  0.92360334  0.19421693     0.00700
C825        C  0.66621071  0.91806241  0.17586300    -0.11500
C826        C  0.63881730  0.95936779  0.15779647     0.03200
C827        C  0.66373683  0.00729109  0.15654050    -0.10900
H828        H  0.77066287  0.98139992  0.22226267     0.08800
H829        H  0.64717341  0.88159167  0.17810633     0.06300
H830        H  0.64739187  0.03937285  0.13675157     0.06200
C831        C  0.81295868  0.95925516  0.32997129     0.03200
C832        C  0.78869927  0.00503280  0.31222705    -0.12900
C833        C  0.81485681  0.05364972  0.31792275     0.00700
C834        C  0.84753413  0.05566111  0.36092486    -0.11500
C835        C  0.86492536  0.01043503  0.38380602     0.03200
C836        C  0.85956166  0.96633429  0.35391897    -0.10900
H837        H  0.74974974  0.00317786  0.29892628     0.08800
H838        H  0.85481386  0.09179244  0.37819013     0.06300
H839        H  0.88362816  0.93402772  0.36043559     0.06200
N840        N  0.43159484  0.96008117  0.94688290    -0.36500
N841        N  0.45336886  0.96945660  0.05133389    -0.57100
N842        N  0.41746667  0.07675546  0.04113269    -0.36500
N843        N  0.41918822  0.06989241  0.93591695    -0.57100
C844        C  0.43784439  0.91084905  0.96019449     0.27100
C845        C  0.42864267  0.96243190  0.89567194     0.27100
C846        C  0.43848917  0.07382965  0.08771469     0.27100
C847        C  0.41768418  0.12649075  0.02825456     0.27100
C848        C  0.44541306  0.91847163  0.05118431     0.35700
C849        C  0.45684316  0.98370608  0.10045486     0.35700
C850        C  0.42346445  0.05542793  0.88647426     0.35700
C851        C  0.40598557  0.11977228  0.93814349     0.35700
C852        C  0.43865094  0.88045499  0.91629544    -0.21800
C853        C  0.43401074  0.91336262  0.87529485    -0.21800
C854        C  0.44935588  0.12297416  0.10630615    -0.21800
C855        C  0.43735411  0.15659112  0.06770508    -0.21800
C856        C  0.45140279  0.89891417  0.09996110    -0.22900
C857        C  0.45991021  0.94055412  0.13148611    -0.22900
C858        C  0.41771349  0.09891034  0.85630288    -0.22900
C859        C  0.40756032  0.13985997  0.88910723    -0.22800
C860        C  0.42366639  0.89337929  0.00883538    -0.18200
C861        C  0.40813493  0.00507037  0.87061369    -0.18200
C862        C  0.39223428  0.14420332  0.98514549    -0.18200
C863        C  0.43460489  0.02943579  0.11680124    -0.18200
H864        H  0.43941010  0.83892513  0.91438401     0.14700
H865        H  0.43447282  0.90208065  0.83528235     0.14700
H866        H  0.46151682  0.13374248  0.14468287     0.14700
H867        H  0.43896718  0.19811896  0.06970398     0.14700
H868        H  0.44938802  0.85929717  0.11193195     0.13000
H869        H  0.46046445  0.93987095  0.17303830     0.13000
H870        H  0.41545687  0.09969562  0.81484107     0.13000
H871        H  0.40098181  0.17914062  0.87784341     0.13000
H872        H  0.41794469  0.98806364  0.97128352     0.26300
H873        H  0.39580148  0.04769688  0.02358697     0.26200
N874        N  0.55165682  0.94149211  0.95980395    -0.36500
N875        N  0.53911255  0.04795417  0.98604631    -0.57100
N876        N  0.56383998  0.02279358  0.08781605    -0.36500
N877        N  0.55803528  0.91533122  0.06442417    -0.57100
C878        C  0.54667682  0.96225033  0.91341413     0.27100
C879        C  0.55367978  0.89036291  0.95455705     0.27100
C880        C  0.55774443  0.07341501  0.09321546     0.27100
C881        C  0.56045204  0.00145041  0.13433417     0.27100
C882        C  0.54276249  0.05204735  0.93489094     0.35700
C883        C  0.53682445  0.09557498  0.00595257     0.35700
C884        C  0.55334729  0.86796293  0.04421871     0.35700
C885        C  0.56753590  0.91154031  0.11466553     0.35700
C886        C  0.54513118  0.92320145  0.87669867    -0.21800
C887        C  0.54908269  0.87742482  0.90296273    -0.21800
C888        C  0.55221551  0.08565618  0.14475252    -0.21800
C889        C  0.55321655  0.03970057  0.17099185    -0.21800
C890        C  0.53515327  0.10252590  0.92080645    -0.22900
C891        C  0.52987218  0.13019143  0.96608062    -0.22900
C892        C  0.55619618  0.83254935  0.08398207    -0.22900
C893        C  0.56478749  0.86048525  0.12893911    -0.22800
C894        C  0.56394632  0.01243312  0.90479709    -0.18200
C895        C  0.57174813  0.85911467  0.99416189    -0.18200
C896        C  0.58355433  0.95439957  0.14401929    -0.18200
C897        C  0.56384764  0.10725529  0.05217644    -0.18200
H898        H  0.54562450  0.92762922  0.83543346     0.14700
H899        H  0.54999431  0.83944551  0.88584948     0.14700
H900        H  0.54964155  0.12358367  0.16168935     0.14700
H901        H  0.55440561  0.03536871  0.21225999     0.14700
H902        H  0.53738162  0.11835536  0.88260970     0.13000
H903        H  0.53067837  0.17166793  0.96925840     0.13000
H904        H  0.55838643  0.79121345  0.08008443     0.13000
H905        H  0.57029440  0.84508110  0.16690735     0.13000
H906        H  0.56581874  0.96171883  0.99091089     0.26300
H907        H  0.58161952  0.00598003  0.05658377     0.26200
C908        C  0.69380247  0.17248823  0.08506767     0.03200
C909        C  0.70641964  0.18908845  0.03407617    -0.12900
C910        C  0.67196739  0.17904678  0.99118920     0.00700
C911        C  0.63653363  0.14068640  0.99935914    -0.11500
C912        C  0.61519051  0.13357950  0.04770546     0.03200
C913        C  0.64443674  0.15005054  0.09032460    -0.10900
H914        H  0.74358586  0.20519362  0.02817175     0.08800
H915        H  0.62237089  0.12019124  0.96643140     0.06300
H916        H  0.62836228  0.14636592  0.12786600     0.06200
C917        C  0.79369673  0.29490403  0.95832730     0.03200
C918        C  0.83159801  0.33274353  0.95668874    -0.12900
C919        C  0.84983112  0.35609650  0.00181515     0.00700
C920        C  0.84345709  0.32800904  0.04637678    -0.11500
C921        C  0.79597022  0.30554235  0.05292696     0.03200
C922        C  0.76830001  0.29159818  0.00685386    -0.10900
H923        H  0.84131225  0.34705380  0.92033261     0.08800
H924        H  0.86731337  0.33593735  0.07952446     0.06300
H925        H  0.72812673  0.28211590  0.00835654     0.06200
C926        C  0.33792391  0.96278019  0.19277474     0.03200
C927        C  0.35999301  0.97620866  0.14662223    -0.12900
C928        C  0.38700700  0.02312258  0.14562069     0.00700
C929        C  0.37003960  0.06215122  0.17662755    -0.11500
C930        C  0.33273212  0.05116928  0.21214217     0.03200
C931        C  0.32198176  0.00133312  0.22584945    -0.10900
H932        H  0.36485883  0.94726037  0.11730567     0.08800
H933        H  0.38467862  0.10088714  0.17378534     0.06300
H934        H  0.30180846  0.99298551  0.26099161     0.06200
C935        C  0.18790578  0.04741787  0.28891327     0.03200
C936        C  0.20102194  0.00093513  0.25889746    -0.12900
C937        C  0.19564819  0.94883567  0.28061163     0.00700
C938        C  0.17442636  0.94671124  0.32965714    -0.11500
C939        C  0.16028074  0.98970852  0.35871986     0.03200
C940        C  0.16710265  0.03893760  0.33744289    -0.10900
H941        H  0.21704959  0.00542300  0.22105273     0.08800
H942        H  0.16885164  0.90926536  0.34517285     0.06300
H943        H  0.15492028  0.07244305  0.35856573     0.06200
C944        C  0.97475136  0.68386245  0.18597058     0.03200
C945        C  0.98243125  0.64775204  0.14854931    -0.12900
C946        C  0.03013683  0.62527077  0.14301769     0.00700
C947        C  0.07307919  0.65487170  0.15756456    -0.11500
C948        C  0.06844304  0.70529458  0.17738214     0.03200
C949        C  0.01790087  0.71864308  0.19455210    -0.10900
H950        H  0.94959405  0.63372298  0.12806127     0.08800
H951        H  0.11055941  0.63872976  0.15371590     0.06300
H952        H  0.01252346  0.75635363  0.20969031     0.06200
C953        C  0.94373948  0.80815793  0.30081206     0.03200
C954        C  0.99191425  0.78236522  0.29605946    -0.12900
C955        C  0.03855786  0.80931013  0.30961992     0.00700
C956        C  0.03267509  0.85678939  0.33272684    -0.11500
C957        C  0.98904331  0.86221842  0.36233530     0.03200
C958        C  0.94316004  0.84517577  0.33957300    -0.10900
H959        H  0.99275639  0.74215365  0.28663679     0.08800
H960        H  0.06579441  0.88084931  0.34028607     0.06300
H961        H  0.90710418  0.85451607  0.35549767     0.06200
N962        N  0.03840916  0.46410273  0.97729395    -0.36500
N963        N  0.03059445  0.44003954  0.08630911    -0.57100
N964        N  0.93002023  0.41430360  0.06940947    -0.36500
N965        N  0.93212371  0.44887746  0.96282208    -0.57100
C966        C  0.08756994  0.47050676  0.99059718     0.27100
C967        C  0.03718288  0.45320657  0.92671430     0.27100
C968        C  0.93126737  0.41491722  0.12099794     0.27100
C969        C  0.88269995  0.42763005  0.05439203     0.27100
C970        C  0.07982989  0.45363252  0.08384170     0.35700
C971        C  0.01977039  0.43162494  0.13569203     0.35700
C972        C  0.94660795  0.44967606  0.91400003     0.35700
C973        C  0.88254412  0.43715847  0.96377638     0.35700
C974        C  0.11709483  0.47320568  0.94610283    -0.21800
C975        C  0.08515157  0.46003142  0.90572971    -0.21800
C976        C  0.88382627  0.42854420  0.13988117    -0.21800
C977        C  0.85260437  0.43580943  0.09738857    -0.21800
C978        C  0.10022041  0.45653308  0.13340320    -0.22900
C979        C  0.06162447  0.44305879  0.16648369    -0.22900
C980        C  0.90361944  0.44544495  0.88232021    -0.22900
C981        C  0.86239203  0.43764711  0.91441441    -0.22800
C982        C  0.10697283  0.45153745  0.03731054    -0.18200
C983        C  0.99486221  0.43054584  0.90224125    -0.14200
C984        C  0.86356866  0.41183259  0.00638553    -0.18200
C985        C  0.97562459  0.40476228  0.14987130    -0.18200
H986        H  0.15850138  0.47540147  0.94420142     0.14700
H987        H  0.09636104  0.45363362  0.86629727     0.14700
H988        H  0.87280687  0.43205398  0.17971135     0.14700
H989        H  0.81176372  0.44257218  0.09789738     0.14700
H990        H  0.13854767  0.46755979  0.14518982     0.13000
H991        H  0.06477841  0.43880421  0.20768005     0.13000
H992        H  0.90319108  0.44105397  0.84097336     0.13000
H993        H  0.82349140  0.42855259  0.90256008     0.13000
H994        H  0.00905353  0.45815932  0.00284384     0.26300
H995        H  0.95751803  0.39788315  0.04561311     0.26200
N996        N  0.94041932  0.56365173  0.95350985    -0.36500
N997        N  0.96702618  0.54809421  0.05994511    -0.57100
N998        N  0.06647139  0.57893519  0.03348750    -0.36500
N999        N  0.04288851  0.56813689  0.92619220    -0.57100
C1000       C  0.89484381  0.55490555  0.97496721     0.27100
C1001       C  0.93430213  0.56396722  0.90236271     0.27100
C1002       C  0.07361090  0.56870993  0.08310492     0.27100
C1003       C  0.11221802  0.57752773  0.01069958     0.27100
C1004       C  0.91605458  0.55307111  0.06448276     0.35700
C1005       C  0.98723812  0.54666126  0.10753256     0.35700
C1006       C  0.02329911  0.56121250  0.87905907     0.35700
C1007       C  0.09238982  0.58026923  0.92212617     0.35700
C1008       C  0.85785396  0.55020431  0.93649817    -0.21800
C1009       C  0.88308018  0.55586549  0.89021688    -0.21800
C1010       C  0.12555605  0.56376955  0.09335510    -0.21800
C1011       C  0.15026969  0.56892929  0.04688049    -0.21800
C1012       C  0.90228566  0.54730759  0.11527499    -0.22900
C1013       C  0.94755122  0.54139404  0.14265266    -0.22900
C1014       C  0.06341706  0.56299075  0.84383523    -0.22900
C1015       C  0.10759943  0.57576299  0.87150787    -0.22800
C1016       C  0.88592528  0.57332581  0.02442177    -0.18200
C1017       C  0.97362208  0.57985726  0.86952850    -0.18200
C1018       C  0.11924061  0.60151585  0.96389297    -0.18200
C1019       C  0.03396080  0.57335562  0.11834518    -0.18200
H1020       H  0.81678544  0.54796504  0.94158457     0.14700
H1021       H  0.86556138  0.55542521  0.85246245     0.14700
H1022       H  0.14368920  0.55906979  0.13044266     0.14700
H1023       H  0.19124948  0.57083363  0.04105343     0.14700
H1024       H  0.86441231  0.55130861  0.13138127     0.13000
H1025       H  0.95109117  0.54337355  0.18404020     0.13000
H1026       H  0.05969867  0.56396746  0.80245500     0.13000
H1027       H  0.14486786  0.58498678  0.85595799     0.13000
H1028       H  0.96995522  0.58079484  0.97281300     0.26300
H1029       H  0.03485935  0.59685016  0.01873940     0.26200
C1030       C  0.29935950  0.82937865  0.05744805     0.03200
C1031       C  0.27685666  0.81942293  0.00825860    -0.12900
C1032       C  0.30287692  0.83519460  0.96248386     0.00700
C1033       C  0.33852924  0.87340665  0.96958286    -0.11500
C1034       C  0.37043345  0.87164646  0.01276694     0.03200
C1035       C  0.34946341  0.84986982  0.05730933    -0.10900
H1036       H  0.23863774  0.80472934  0.00682726     0.08800
H1037       H  0.34714262  0.89720945  0.93709175     0.06300
H1038       H  0.37091256  0.84834400  0.09215389     0.06200
C1039       C  0.17365301  0.72736061  0.92930903     0.03200
C1040       C  0.20461430  0.72413476  0.97509064    -0.12900
C1041       C  0.18330103  0.70300541  0.02115698     0.00700
C1042       C  0.13504037  0.68105605  0.01590221    -0.11500
C1043       C  0.12448564  0.65861437  0.96811027     0.03200
C1044       C  0.13746987  0.68750307  0.92565627    -0.10900
H1045       H  0.24506790  0.73168331  0.97326408     0.08800
H1046       H  0.11558290  0.66717894  0.04958346     0.06300
H1047       H  0.12984628  0.67111265  0.88936364     0.06200
C1048       C  0.03688876  0.28269023  0.20364042     0.03200
C1049       C  0.98956187  0.25401789  0.21717211    -0.12900
C1050       C  0.93800527  0.27698946  0.21169519     0.00700
C1051       C  0.93734169  0.32682834  0.19183100    -0.11500
C1052       C  0.98108484  0.35360253  0.17582899     0.03200
C1053       C  0.02937820  0.33006043  0.18031548    -0.10900
H1054       H  0.99298128  0.21620513  0.23356441     0.08800
H1055       H  0.90074767  0.34529024  0.18819811     0.06300
H1056       H  0.06296824  0.34821328  0.16448833     0.06200
C1057       C  0.03973001  0.20770758  0.35172729     0.03200
C1058       C  0.99041177  0.22160718  0.33939129    -0.12900
C1059       C  0.95104611  0.18989920  0.35615690     0.00700
C1060       C  0.96362843  0.14437615  0.37980915    -0.11500
C1061       C  0.00983224  0.14341382  0.40762699     0.03200
C1062       C  0.04939363  0.17376866  0.39077247    -0.10900
H1063       H  0.98312317  0.25611129  0.31781652     0.08800
H1064       H  0.93511111  0.11501954  0.38419105     0.06300
H1065       H  0.08762987  0.17116229  0.40654121     0.06200
C1066       C  0.94548987  0.32418118  0.82976754     0.03200
C1067       C  0.95231270  0.34751873  0.87692970    -0.12900
C1068       C  0.99733831  0.37569201  0.88427384     0.00700
C1069       C  0.04203207  0.35140329  0.86836445    -0.11500
C1070       C  0.03966775  0.31012000  0.83341121     0.03200
C1071       C  0.99161311  0.30657889  0.80592018    -0.10900
H1072       H  0.92013297  0.35429608  0.90085436     0.08800
H1073       H  0.07805724  0.36714242  0.87888456     0.06300
H1074       H  0.99026946  0.29394223  0.76665350     0.06200
C1075       C  0.00446294  0.18550270  0.72051925     0.03200
C1076       C  0.99546305  0.14580009  0.68635606    -0.12900
C1077       C  0.94779428  0.14325756  0.66197238     0.00700
C1078       C  0.90546034  0.15902119  0.68872511    -0.11500
C1079       C  0.91026902  0.18181995  0.73727051     0.03200
C1080       C  0.96093723  0.19879164  0.75193777    -0.10900
H1081       H  0.02755384  0.12590123  0.67055118     0.08800
H1082       H  0.86884820  0.15703595  0.66947135     0.06300
H1083       H  0.96569625  0.21871228  0.78761362     0.06200
N1084       N  0.94925861  0.94503979  0.44746174    -0.36500
N1085       N  0.05850229  0.93552605  0.43184367    -0.57100
N1086       N  0.06429366  0.03967821  0.43289810    -0.36500
N1087       N  0.95594164  0.04817254  0.47407572    -0.57100
C1088       C  0.95249307  0.89416433  0.44270818     0.27100
C1089       C  0.89998102  0.95711470  0.45284981     0.27100
C1090       C  0.11426716  0.02745803  0.43336350     0.27100
C1091       C  0.05987493  0.08434000  0.45798010     0.27100
C1092       C  0.04360976  0.88657015  0.43634424     0.35700
C1093       C  0.10885738  0.93703732  0.42282569     0.35700
C1094       C  0.90557297  0.04745793  0.46352894     0.35700
C1095       C  0.96959485  0.09748612  0.47678625     0.35700
C1096       C  0.90411058  0.87222145  0.44723564    -0.21800
C1097       C  0.87040061  0.91248000  0.45292310    -0.21800
C1098       C  0.14299878  0.06606679  0.45649017    -0.21800
C1099       C  0.10835337  0.10285548  0.47128432    -0.21800
C1100       C  0.08667321  0.85558038  0.43393205    -0.22900
C1101       C  0.12850165  0.88792592  0.42650551    -0.22900
C1102       C  0.88549686  0.09604763  0.46782157    -0.22900
C1103       C  0.92617201  0.12806672  0.47901061    -0.22800
C1104       C  0.99447598  0.87221569  0.41873830    -0.18200
C1105       C  0.88306488  0.00559142  0.43834004    -0.18200
C1106       C  0.01558281  0.11375426  0.45477300    -0.18200
C1107       C  0.13362983  0.98342189  0.40964274    -0.18200
H1108       H  0.89377647  0.83217301  0.44170346     0.14700
H1109       H  0.82899084  0.90976815  0.45194152     0.14700
H1110       H  0.18430319  0.06827758  0.46012826     0.14700
H1111       H  0.11793710  0.14028301  0.48712120     0.14700
H1112       H  0.08711495  0.81403816  0.43241431     0.13000
H1113       H  0.16797640  0.87628272  0.42260173     0.13000
H1114       H  0.84635316  0.10765060  0.46092775     0.13000
H1115       H  0.92511523  0.16962664  0.47849534     0.13000
H1116       H  0.97688538  0.97049247  0.43479024     0.26300
H1117       H  0.03584923  0.02290809  0.40986720     0.26200
N1118       N  0.90423811  0.04649786  0.59570341    -0.36500
N1119       N  0.92623556  0.94492770  0.56093214    -0.57100
N1120       N  0.03139620  0.97706041  0.56897625    -0.36500
N1121       N  0.00941872  0.08048889  0.57555774    -0.57100
C1122       C  0.85981817  0.02816063  0.57602691     0.27100
C1123       C  0.90245913  0.09791422  0.59304054     0.27100
C1124       C  0.03522904  0.92690374  0.55970925     0.27100
C1125       C  0.07688891  0.99910945  0.55935666     0.27100
C1126       C  0.87569302  0.93730776  0.56715220     0.35700
C1127       C  0.94819365  0.89850355  0.56020302     0.35700
C1128       C  0.98892528  0.12680274  0.58059438     0.35700
C1129       C  0.06015832  0.08639835  0.57830970     0.35700
C1130       C  0.82872940  0.06899018  0.56251922    -0.21800
C1131       C  0.85545639  0.11348025  0.57473330    -0.21800
C1132       C  0.08437381  0.91549611  0.54440880    -0.21800
C1133       C  0.11060183  0.96187790  0.54219574    -0.21800
C1134       C  0.86418341  0.88514519  0.56551444    -0.22900
C1135       C  0.91053682  0.86034428  0.56163868    -0.22900
C1136       C  0.02748563  0.16416224  0.58076721    -0.22900
C1137       C  0.07327972  0.13798676  0.58016125    -0.22800
C1138       C  0.84321167  0.97710503  0.58303789    -0.18200
C1139       C  0.94299511  0.13054631  0.60698451    -0.18200
C1140       C  0.09149978  0.04405871  0.58575568    -0.18200
C1141       C  0.99877106  0.89266678  0.57797627    -0.18200
H1142       H  0.79067413  0.06690961  0.54579965     0.14700
H1143       H  0.84292810  0.15247256  0.56863928     0.14700
H1144       H  0.10052808  0.87769582  0.53946326     0.14700
H1145       H  0.15145694  0.96657621  0.53677170     0.14700
H1146       H  0.82710500  0.86712130  0.57115926     0.13000
H1147       H  0.91646335  0.81945960  0.56540114     0.13000
H1148       H  0.02315484  0.20473510  0.58879488     0.13000
H1149       H  0.11132855  0.15444152  0.58392739     0.13000
H1150       H  0.93187329  0.02572976  0.61537501     0.26300
H1151       H  0.00340197  0.99222857  0.59256691     0.26200
C1152       C  0.27953744  0.04539054  0.83011840     0.03200
C1153       C  0.25514378  0.99933720  0.81064585    -0.12900
C1154       C  0.28199660  0.95169237  0.81213732     0.00700
C1155       C  0.33381919  0.95494480  0.82747033    -0.11500
C1156       C  0.35358781  0.99887345  0.85303415     0.03200
C1157       C  0.31904166  0.03787742  0.86398986    -0.10900
H1158       H  0.21623865  0.00007649  0.79689972     0.08800
H1159       H  0.35749125  0.92261416  0.81958250     0.06300
H1160       H  0.32875825  0.06895346  0.88985623     0.06200
C1161       C  0.17840131  0.98282218  0.67849677     0.03200
C1162       C  0.19550005  0.02749120  0.70759901    -0.12900
C1163       C  0.16264315  0.07198501  0.71334493     0.00700
C1164       C  0.12828475  0.07697029  0.67170287    -0.11500
C1165       C  0.11813122  0.03707625  0.63661205     0.03200
C1166       C  0.13370621  0.98842205  0.65117716    -0.10900
H1167       H  0.23424571  0.02887325  0.72161381     0.08800
H1168       H  0.11386171  0.11351181  0.66328690     0.06300
H1169       H  0.11565664  0.95479547  0.63541207     0.06200
O1170       O  0.15836312  0.25301328  0.40413803    -0.88100
C1171       C  0.30716785  0.09289320  0.23316321     1.12000
O1172       O  0.19944437  0.25860614  0.29724294    -1.35900
O1173       O  0.35356115  0.18639705  0.33662057    -0.89600
O1174       O  0.17452043  0.33087397  0.37233229    -0.90200
O1175       O  0.26669635  0.37188720  0.30970380    -0.79100
O1176       O  0.25284247  0.20388008  0.37964950    -1.01100
C1177       C  0.38714463  0.28399237  0.24743652     1.22000
O1178       O  0.24822732  0.28983001  0.21746066    -1.36000
Mn1179     Mn  0.20256968  0.21351983  0.22033370     1.82100
O1180       O  0.36062792  0.30177566  0.28508107    -0.78100
O1181       O  0.38484709  0.16677073  0.25957287    -0.87500
C1182       C  0.26040605  0.20702449  0.11293421     1.13100
C1183       C  0.39055555  0.17784634  0.30663430     1.07800
O1184       O  0.11489396  0.22635419  0.20642368    -0.79100
O1185       O  0.27887877  0.21020669  0.26572971    -1.32800
O1186       O  0.12630696  0.30539901  0.22837103    -0.98300
C1187       C  0.29266863  0.40145631  0.18797890     1.06500
Mn1188     Mn  0.33210394  0.19372802  0.20661455     1.48600
O1189       O  0.24510388  0.39724188  0.17836595    -0.87500
Mn1190     Mn  0.14701996  0.31942311  0.30002761     1.49600
O1191       O  0.11561155  0.19585171  0.31321416    -0.91400
C1192       C  0.27470400  0.23835926  0.40547630     1.19700
C1193       C  0.08218236  0.22761614  0.32664460     1.11800
Mn1194     Mn  0.27620774  0.28694596  0.29453755     1.81000
O1195       O  0.29521427  0.22204688  0.14356342    -0.96500
Mn1196     Mn  0.18368400  0.19941790  0.35063368     1.49300
C1197       C  0.17007169  0.30010022  0.40963863     1.08300
Mn1198     Mn  0.31009452  0.29253811  0.16632491     1.49900
C1199       C  0.22096236  0.32373468  0.09946832     1.11200
O1200       O  0.19435996  0.37114196  0.27083555    -1.02300
O1201       O  0.29304015  0.12661985  0.20213450    -0.92000
C1202       C  0.22832565  0.39757034  0.29235303     1.22500
O1203       O  0.36188672  0.26220752  0.21266522    -1.02700
O1204       O  0.30952266  0.09970233  0.28086770    -0.90100
O1205       O  0.26790969  0.32211182  0.10881703    -0.89700
O1206       O  0.08915863  0.27533145  0.32821637    -0.89700
Mn1207     Mn  0.28194734  0.15757039  0.32612915     1.47900
O1208       O  0.21620940  0.20039282  0.13243710    -0.78200
C1209       C  0.09553911  0.27055949  0.21312239     1.15500
O1210       O  0.29150559  0.27683567  0.37927700    -0.76900
O1211       O  0.18897805  0.12566981  0.23292322    -0.76500
Mn1212     Mn  0.18997573  0.34421951  0.20139508     1.51100
O1213       O  0.32169305  0.36370257  0.19625938    -0.88900
O1214       O  0.21119855  0.13680064  0.31182861    -0.96400
O1215       O  0.18638027  0.31100825  0.13071677    -0.91400
C1216       C  0.19615095  0.10615180  0.27697886     1.13300
loop_ 
_geom_bond_atom_site_label_1 
_geom_bond_atom_site_label_2 
_geom_bond_distance 
_geom_bond_site_symmetry_2 
_ccdc_geom_bond_type 
O1           C28   1.282       .  A
O1          Mn27   2.130       .  S
C2           O35   1.283       .  A
C2           O32   1.272       .  A
C2          C510   1.522       .  S
O3          Mn10   2.207       .  S
O3          Mn21   2.107       .  S
O3          Mn25   2.217       .  S
O3          Mn27   2.102       .  S
O4           C14   1.271       .  A
O4          Mn38   2.136       .  S
O5           C28   1.271       .  A
O5          Mn21   2.129       .  S
O6           C33   1.266       .  A
O6          Mn25   2.202       .  S
O7          Mn38   1.927       .  S
O7          Mn27   1.958       .  S
O7           C23   1.207       .  S
C8           O11   1.267       .  A
C8          C797   1.512       .  S
C8           O34   1.213       .  S
O9          Mn29   2.100       .  S
O9          Mn10   2.211       .  S
O9          Mn43   2.108       .  S
O9          Mn25   2.207       .  S
Mn10         O39   2.205       .  S
Mn10         O15   2.204       .  S
Mn10         O42   2.213       .  S
Mn10         O16   2.205       .  S
O11         Mn25   2.213       .  S
O12          C14   1.280       .  A
O12         Mn19   2.127       .  S
C13          O39   1.269       .  A
C13         C515   1.506       .  S
C13          O26   1.210       .  S
C14         C779   1.523       .  S
O15          C40   1.268       .  A
O16         Mn19   2.100       .  S
O16         Mn38   2.108       .  S
O16         Mn25   2.211       .  S
O17         Mn21   1.983       .  S
O17         Mn43   1.949       .  S
O17          C40   1.212       .  S
C18          O44   1.271       .  A
C18          O20   1.280       .  A
C18         C786   1.515       .  S
Mn19         O32   2.135       .  S
Mn19         O34   1.968       .  S
Mn19         O26   1.937       .  S
O20         Mn43   2.117       .  S
Mn21         O37   2.117       .  S
Mn21         O31   1.988       .  S
O22          C24   1.273       .  A
O22         Mn27   2.139       .  S
C23          O41   1.264       .  A
C23         C772   1.491       .  S
C24          O37   1.279       .  A
C24         C375   1.520       .  S
Mn25         O41   2.189       .  S
O26         Mn29   1.965       .  S
Mn27         O45   1.939       .  S
C28         C752   1.520       .  S
Mn29         O36   2.133       .  S
Mn29         O44   2.128       .  S
Mn29         O34   1.941       .  S
C30          O36   1.284       .  A
C30          O46   1.267       .  A
C30         C488   1.514       .  S
O31         Mn43   2.016       .  S
O31          C33   1.232       .  A
C33         C759   1.497       .  S
O35         Mn38   2.132       .  S
Mn38         O45   1.967       .  S
C40         C497   1.507       .  S
O42          C47   1.270       .  A
Mn43         O46   2.113       .  S
O45          C47   1.209       .  S
C47         C368   1.510       .  S
O48          C75   1.287       .  A
O48         Mn74   2.170       .  S
C49          O82   1.280       .  A
C49          O79   1.261       .  A
C49         C537   1.506       .  S
O50         Mn57   2.192       .  S
O50         Mn68   2.127       .  S
O50         Mn72   2.190       .  S
O50         Mn74   2.119       .  S
O51          C61   1.273       .  A
O51         Mn85   2.137       .  S
O52          C75   1.265       .  A
O52         Mn68   2.123       .  S
O53          C80   1.271       .  A
O53         Mn72   2.188       .  S
O54         Mn85   1.985       .  S
O54         Mn74   2.011       .  S
O54          C70   1.222       .  A
C55          O58   1.269       .  A
C55         C824   1.511       .  S
C55          O81   1.210       .  S
O56         Mn76   2.103       .  S
O56         Mn57   2.190       .  S
O56         Mn90   2.104       .  S
O56         Mn72   2.215       .  S
Mn57         O86   2.235       .  S
Mn57         O62   2.219       .  S
Mn57         O89   2.192       .  S
Mn57         O63   2.211       .  S
O58         Mn72   2.219       .  S
O59          C61   1.276       .  A
O59         Mn66   2.124       .  S
C60          O86   1.273       .  A
C60         C528   1.519       .  S
C60          O73   1.206       .  S
C61         C761   1.519       .  S
O62          C87   1.280       .  A
O63         Mn66   2.096       .  S
O63         Mn85   2.111       .  S
O63         Mn72   2.193       .  S
O64         Mn68   2.012       .  S
O64         Mn90   1.996       .  S
O64          C87   1.223       .  A
C65          O91   1.258       .  A
C65          O67   1.282       .  A
C65         C831   1.505       .  S
Mn66         O79   2.093       .  S
Mn66         O81   1.936       .  S
Mn66         O73   1.922       .  S
O67         Mn90   2.134       .  S
Mn68         O84   2.171       .  S
Mn68         O78   1.969       .  S
O69          C71   1.268       .  A
O69         Mn74   2.133       .  S
C70          O88   1.277       .  A
C70         C750   1.498       .  S
C71          O84   1.287       .  A
C71         C646   1.548       .  S
Mn72         O88   2.218       .  S
O73         Mn76   1.928       .  S
Mn74         O92   1.976       .  S
C75         C944   1.543       .  S
Mn76         O83   2.134       .  S
Mn76         O91   2.082       .  S
Mn76         O81   1.926       .  S
C77          O83   1.281       .  A
C77          O93   1.276       .  A
C77         C519   1.533       .  S
O78         Mn90   2.001       .  S
O78          C80   1.213       .  S
C80         C953   1.508       .  S
O82         Mn85   2.129       .  S
Mn85         O92   1.997       .  S
C87         C506   1.497       .  S
O89          C94   1.273       .  A
Mn90         O93   2.151       .  S
O92          C94   1.212       .  S
C94         C659   1.508       .  S
O95         C122   1.285       .  A
O95        Mn121   2.159       .  S
C96         O129   1.285       .  A
C96         O126   1.262       .  A
C96         C743   1.508       .  S
O97        Mn104   2.196       .  S
O97        Mn115   2.132       .  S
O97        Mn119   2.181       .  S
O97        Mn121   2.118       .  S
O98         C108   1.265       .  A
O98        Mn132   2.092       .  S
O99         C122   1.276       .  A
O99        Mn115   2.155       .  S
O100        C127   1.272       .  A
O100       Mn119   2.189       .  S
O101       Mn132   1.938       .  S
O101       Mn121   1.945       .  S
O101        C117   1.204       .  S
C102        O105   1.267       .  A
C102       C1079   1.499       .  S
C102        O128   1.233       .  A
O103       Mn123   2.116       .  S
O103       Mn104   2.190       .  S
O103       Mn137   2.111       .  S
O103       Mn119   2.205       .  S
Mn104       O133   2.235       .  S
Mn104       O109   2.180       .  S
Mn104       O136   2.200       .  S
Mn104       O110   2.193       .  S
O105       Mn119   2.205       .  S
O106        C108   1.282       .  A
O106       Mn113   2.162       .  S
C107        O133   1.275       .  A
C107        C732   1.523       .  S
C107        O120   1.210       .  S
C108        C795   1.501       .  S
O109        C134   1.272       .  A
O110       Mn113   2.103       .  S
O110       Mn132   2.096       .  S
O110       Mn119   2.198       .  S
O111       Mn115   1.989       .  S
O111       Mn137   1.961       .  S
O111        C134   1.212       .  S
C112        O138   1.259       .  A
C112        O114   1.287       .  A
C112       C1066   1.517       .  S
Mn113       O126   2.087       .  S
Mn113       O128   2.023       .  S
Mn113       O120   1.960       .  S
O114       Mn137   2.165       .  S
Mn115       O131   2.195       .  S
Mn115       O125   1.960       .  S
O116        C118   1.265       .  A
O116       Mn121   2.099       .  S
C117        O135   1.274       .  A
C117        C790   1.498       .  S
C118        O131   1.293       .  A
C118        C395   1.531       .  S
Mn119       O135   2.201       .  S
O120       Mn123   1.943       .  S
Mn121       O139   1.948       .  S
C122        C910   1.545       .  S
Mn123       O130   2.124       .  S
Mn123       O138   2.085       .  S
Mn123       O128   1.992       .  S
C124        O130   1.279       .  A
C124        O140   1.272       .  A
C124        C366   1.521       .  S
O125       Mn137   1.983       .  S
O125        C127   1.213       .  S
C127        C917   1.508       .  S
O129       Mn132   2.148       .  S
Mn132       O139   1.970       .  S
C134        C379   1.498       .  S
O136        C141   1.273       .  A
Mn137       O140   2.135       .  S
O139        C141   1.209       .  S
C141        C388   1.511       .  S
O142        C169   1.256       .  A
O142       Mn168   2.054       .  S
C143        O176   1.263       .  A
C143        O173   1.253       .  A
C143        C639   1.459       .  S
O144       Mn151   2.178       .  S
O144       Mn162   2.078       .  S
O144       Mn166   2.219       .  S
O144       Mn168   2.125       .  S
O145        C155   1.269       .  A
O145       Mn179   2.131       .  S
O146        C169   1.250       .  A
O146       Mn162   2.012       .  S
O147        C174   1.281       .  A
O147       Mn166   2.251       .  S
O148       Mn179   1.908       .  S
O148       Mn168   1.953       .  S
O148        C164   1.204       .  S
C149        O152   1.293       .  A
C149       C1163   1.538       .  S
C149        O175   1.214       .  A
O150       Mn170   2.099       .  S
O150       Mn151   2.207       .  S
O150       Mn184   2.110       .  S
O150       Mn166   2.188       .  S
Mn151       O180   2.241       .  S
Mn151       O156   2.289       .  S
Mn151       O183   2.224       .  S
Mn151       O157   2.216       .  S
O152       Mn166   2.296       .  S
O153        C155   1.282       .  A
O153       Mn160   2.166       .  S
C154        O180   1.279       .  A
C154        C628   1.581       .  S
C154        O167   1.241       .  S
C155       C1075   1.538       .  S
O156        C181   1.287       .  A
O157       Mn160   2.105       .  S
O157       Mn179   2.127       .  S
O157       Mn166   2.184       .  S
O158       Mn162   1.908       .  S
O158       Mn184   1.917       .  S
O158        C181   1.206       .  S
C159        O185   1.280       .  A
C159        O161   1.283       .  A
C159       C1152   1.520       .  S
Mn160       O173   2.045       .  S
Mn160       O175   1.971       .  S
Mn160       O167   2.021       .  S
O161       Mn184   2.131       .  S
Mn162       O178   2.155       .  S
Mn162       O172   1.995       .  S
O163        C165   1.275       .  A
O163       Mn168   2.145       .  S
C164        O182   1.278       .  A
C164       C1070   1.512       .  S
C165        O178   1.279       .  A
C165        C479   1.526       .  S
Mn166       O182   2.219       .  S
O167       Mn170   2.056       .  S
Mn168       O186   1.892       .  S
C169        C817   1.442       .  S
Mn170       O177   2.090       .  S
Mn170       O185   2.147       .  S
Mn170       O175   1.937       .  S
C171        O177   1.280       .  A
C171        O187   1.266       .  A
C171        C384   1.498       .  S
O172       Mn184   2.004       .  S
O172        C174   1.236       .  S
C174        C804   1.574       .  S
O176       Mn179   2.058       .  S
Mn179       O186   1.950       .  S
C181        C393   1.547       .  S
O183        C188   1.278       .  A
Mn184       O187   2.107       .  S
O186        C188   1.201       .  S
C188        C474   1.508       .  S
O189        C216   1.281       .  A
O189       Mn215   2.129       .  S
C190        O223   1.285       .  A
C190        O220   1.270       .  A
C190        C621   1.543       .  S
O191       Mn198   2.212       .  S
O191       Mn209   2.110       .  S
O191       Mn213   2.207       .  S
O191       Mn215   2.114       .  S
O192        C202   1.259       .  A
O192       Mn226   2.090       .  S
O193        C216   1.268       .  A
O193       Mn209   2.121       .  S
O194        C221   1.277       .  A
O194       Mn213   2.216       .  S
O195       Mn226   1.981       .  S
O195       Mn215   1.982       .  S
O195        C211   1.220       .  S
C196        O199   1.275       .  A
C196        C777   1.506       .  S
C196        O222   1.205       .  S
O197       Mn217   2.128       .  S
O197       Mn198   2.208       .  S
O197       Mn231   2.110       .  S
O197       Mn213   2.192       .  S
Mn198       O227   2.213       .  S
Mn198       O203   2.228       .  S
Mn198       O230   2.225       .  S
Mn198       O204   2.192       .  S
O199       Mn213   2.208       .  S
O200        C202   1.293       .  A
O200       Mn207   2.174       .  S
C201        O227   1.277       .  A
C201        C610   1.515       .  S
C201        O214   1.209       .  S
C202       C1161   1.528       .  S
O203        C228   1.274       .  A
O204       Mn207   2.120       .  S
O204       Mn226   2.125       .  S
O204       Mn213   2.198       .  S
O205       Mn209   2.027       .  S
O205       Mn231   2.010       .  S
O205        C228   1.233       .  A
C206        O232   1.270       .  A
C206        O208   1.271       .  A
C206        C768   1.533       .  S
Mn207       O220   2.140       .  S
Mn207       O222   1.966       .  S
Mn207       O214   1.960       .  S
O208       Mn231   2.113       .  S
Mn209       O225   2.108       .  S
Mn209       O219   1.990       .  S
O210        C212   1.275       .  A
O210       Mn215   2.155       .  S
C211        O229   1.271       .  A
C211       C1154   1.523       .  S
C212        O225   1.274       .  A
C212        C499   1.533       .  S
Mn213       O229   2.206       .  S
O214       Mn217   1.973       .  S
Mn215       O233   1.978       .  S
C216       C1032   1.524       .  S
Mn217       O224   2.165       .  S
Mn217       O232   2.143       .  S
Mn217       O222   1.948       .  S
C218        O224   1.288       .  A
C218        O234   1.257       .  A
C218        C470   1.513       .  S
O219       Mn231   2.028       .  S
O219        C221   1.224       .  A
C221       C1039   1.502       .  S
O223       Mn226   2.163       .  S
Mn226       O233   1.997       .  S
C228        C481   1.515       .  S
O230        C235   1.279       .  A
Mn231       O234   2.072       .  S
O233        C235   1.221       .  A
C235        C490   1.501       .  S
O236        C263   1.264       .  A
O236       Mn262   2.061       .  S
C237        O270   1.259       .  A
C237        O267   1.252       .  A
C237       C1059   1.441       .  S
O238       Mn245   2.187       .  S
O238       Mn256   2.111       .  S
O238       Mn260   2.220       .  S
O238       Mn262   2.122       .  S
O239        C249   1.272       .  A
O239       Mn273   2.132       .  S
O240        C263   1.257       .  A
O240       Mn256   2.058       .  S
O241        C268   1.279       .  A
O241       Mn260   2.245       .  S
O242       Mn273   1.902       .  S
O242       Mn262   1.958       .  S
O242        C258   1.204       .  S
C243        O246   1.288       .  A
C243        C650   1.537       .  S
C243        O269   1.201       .  S
O244       Mn264   2.109       .  S
O244       Mn245   2.200       .  S
O244       Mn278   2.109       .  S
O244       Mn260   2.199       .  S
Mn245       O274   2.257       .  S
Mn245       O250   2.266       .  S
Mn245       O277   2.220       .  S
Mn245       O251   2.209       .  S
O246       Mn260   2.279       .  S
O247        C249   1.285       .  A
O247       Mn254   2.165       .  S
C248        O274   1.281       .  A
C248       C1050   1.588       .  S
C248        O261   1.239       .  S
C249        C736   1.528       .  S
O250        C275   1.287       .  A
O251       Mn254   2.100       .  S
O251       Mn273   2.127       .  S
O251       Mn260   2.179       .  S
O252       Mn256   1.916       .  S
O252       Mn278   1.927       .  S
O252        C275   1.206       .  S
C253        O279   1.268       .  A
C253        O255   1.288       .  A
C253        C655   1.506       .  S
Mn254       O267   2.008       .  S
Mn254       O269   1.897       .  S
Mn254       O261   2.004       .  S
O255       Mn278   2.128       .  S
Mn256       O272   2.166       .  S
Mn256       O266   1.994       .  S
O257        C259   1.272       .  A
O257       Mn262   2.133       .  S
C258        O276   1.276       .  A
C258        C741   1.510       .  S
C259        O272   1.286       .  A
C259        C822   1.533       .  S
Mn260       O276   2.217       .  S
O261       Mn264   2.024       .  S
Mn262       O280   1.907       .  S
C263        C330   1.464       .  S
Mn264       O271   2.118       .  S
Mn264       O279   2.105       .  S
Mn264       O269   1.915       .  S
C265        O271   1.287       .  A
C265        O281   1.266       .  A
C265        C921   1.500       .  S
O266       Mn278   2.016       .  S
O266        C268   1.235       .  S
C268        C339   1.574       .  S
O270       Mn273   2.053       .  S
Mn273       O280   1.954       .  S
C275        C908   1.536       .  S
O277        C282   1.277       .  A
Mn278       O281   2.098       .  S
O280        C282   1.204       .  S
C282        C833   1.512       .  S
O283        C310   1.285       .  A
O283       Mn309   2.141       .  S
C284        O317   1.280       .  A
C284        O314   1.269       .  A
C284        C612   1.497       .  S
O285       Mn292   2.220       .  S
O285       Mn303   2.119       .  S
O285       Mn307   2.202       .  S
O285       Mn309   2.109       .  S
O286        C296   1.270       .  A
O286       Mn320   2.113       .  S
O287        C310   1.266       .  A
O287       Mn303   2.105       .  S
O288        C315   1.274       .  A
O288       Mn307   2.209       .  S
O289       Mn320   1.975       .  S
O289       Mn309   1.992       .  S
O289        C305   1.229       .  A
C290        O293   1.281       .  A
C290        C937   1.587       .  S
C290        O316   1.241       .  S
O291       Mn311   2.095       .  S
O291       Mn292   2.179       .  S
O291       Mn325   2.124       .  S
O291       Mn307   2.209       .  S
Mn292       O321   2.261       .  S
Mn292       O297   2.219       .  S
Mn292       O324   2.241       .  S
Mn292       O298   2.205       .  S
O293       Mn307   2.255       .  S
O294        C296   1.286       .  A
O294       Mn301   2.121       .  S
C295        O321   1.284       .  A
C295        C619   1.532       .  S
C295        O308   1.205       .  S
C296        C955   1.506       .  S
O297        C322   1.275       .  A
O298       Mn301   2.113       .  S
O298       Mn320   2.106       .  S
O298       Mn307   2.196       .  S
O299       Mn303   1.944       .  S
O299       Mn325   1.889       .  S
O299        C322   1.202       .  S
C300        O326   1.255       .  A
C300        O302   1.258       .  A
C300        C926   1.436       .  S
Mn301       O314   2.112       .  S
Mn301       O316   2.029       .  S
Mn301       O308   1.917       .  S
O302       Mn325   2.041       .  S
Mn303       O319   2.072       .  S
Mn303       O313   1.931       .  S
O304        C306   1.254       .  A
O304       Mn309   2.040       .  S
C305        O323   1.284       .  A
C305        C948   1.529       .  S
C306        O319   1.264       .  A
C306        C357   1.460       .  S
Mn307       O323   2.265       .  S
O308       Mn311   1.904       .  S
Mn309       O327   1.996       .  S
C310       C1041   1.512       .  S
Mn311       O318   2.156       .  S
Mn311       O326   2.017       .  S
Mn311       O316   2.009       .  S
C312        O318   1.285       .  A
C312        O328   1.275       .  A
C312        C524   1.531       .  S
O313       Mn325   1.960       .  S
O313        C315   1.215       .  S
C315       C1030   1.516       .  S
O317       Mn320   2.094       .  S
Mn320       O327   2.027       .  S
C322        C533   1.509       .  S
O324        C329   1.276       .  A
Mn325       O328   2.143       .  S
O327        C329   1.237       .  S
C329        C352   1.573       .  S
C330        C331   1.395       .  A
C330        C335   1.407       .  A
C331        C332   1.386       .  A
C331        H336   1.063       .  S
C332        C597   1.508       .  S
C332        C333   1.361       .  A
C333        C334   1.396       .  A
C333        H337   1.077       .  S
C334       C1183   1.431       .  S
C334        C335   1.416       .  A
C335        H338   1.084       .  S
C339        C340   1.475       .  A
C339        C344   1.405       .  A
C340        C341   1.474       .  A
C340        H345   1.079       .  S
C341       C1177   1.579       .  S
C341        C342   1.399       .  A
C342        C343   1.408       .  A
C342        H346   1.067       .  S
C343        C458   1.518       .  S
C343        C344   1.403       .  A
C344        H347   1.075       .  S
C348       C1202   1.587       .  S
C348        C349   1.406       .  A
C348        C353   1.478       .  A
C349        C350   1.416       .  A
C349        H354   1.079       .  S
C350        C721   1.519       .  S
C350        C351   1.394       .  A
C351        C352   1.398       .  A
C351        H355   1.069       .  S
C352        C353   1.479       .  A
C353        H356   1.079       .  S
C357        C358   1.395       .  A
C357        C362   1.405       .  A
C358        C359   1.388       .  A
C358        H363   1.064       .  S
C359        C457   1.513       .  S
C359        C360   1.367       .  A
C360        C361   1.397       .  A
C360        H364   1.076       .  S
C361       C1187   1.431       .  S
C361        C362   1.411       .  A
C362        H365   1.084       .  S
C366        C367   1.441       .  A
C366        C371   1.376       .  A
C367        C368   1.434       .  A
C367        H372   1.068       .  S
C368        C369   1.406       .  A
C369        C370   1.398       .  A
C369        H373   1.072       .  S
C370        C687   1.496       .  S
C370        C371   1.392       .  A
C371        H374   1.074       .  S
C375        C376   1.394       .  A
C375        C380   1.433       .  A
C376        C377   1.392       .  A
C376        H381   1.078       .  S
C377        C424   1.494       .  S
C377        C378   1.392       .  A
C378        C379   1.397       .  A
C378        H382   1.077       .  S
C379        C380   1.445       .  A
C380        H383   1.073       .  S
C384        C385   1.378       .  A
C384        C389   1.437       .  A
C385        C386   1.380       .  A
C385        H390   1.078       .  S
C386        C599   1.495       .  S
C386        C387   1.397       .  A
C387        C388   1.396       .  A
C387        H391   1.053       .  S
C388        C389   1.439       .  A
C389        H392   1.073       .  S
C393        C394   1.446       .  A
C393        C398   1.410       .  A
C394        C395   1.459       .  A
C394        H399   1.076       .  S
C395        C396   1.383       .  A
C396        C397   1.398       .  A
C396        H400   1.079       .  S
C397        C425   1.502       .  S
C397        C398   1.399       .  A
C398        H401   1.061       .  S
N402        C407   1.345       .  A
N402        C406   1.337       .  A
N402        H434   1.040       .  S
N403        C410   1.343       .  A
N403        C411   1.345       .  A
N404        C409   1.337       .  A
N404        C408   1.342       .  A
N404        H435   1.045       .  S
N405        C412   1.335       .  A
N405        C413   1.334       .  A
C406        C414   1.385       .  A
C406        C422   1.393       .  A
C407        C423   1.402       .  A
C407        C415   1.394       .  A
C408        C416   1.383       .  A
C408        C425   1.393       .  A
C409        C424   1.376       .  A
C409        C417   1.372       .  A
C410        C422   1.415       .  A
C410        C418   1.392       .  A
C411        C425   1.409       .  A
C411        C419   1.381       .  A
C412        C420   1.386       .  A
C412        C423   1.401       .  A
C413        C421   1.386       .  A
C413        C424   1.392       .  A
C414        C415   1.386       .  A
C414        H426   1.082       .  S
C415        H427   1.082       .  S
C416        C417   1.376       .  A
C416        H428   1.080   1_556  S
C417        H429   1.080       .  S
C418        C419   1.386       .  A
C418        H430   1.082       .  S
C419        H431   1.079       .  S
C420        C421   1.379       .  A
C420        H432   1.082       .  S
C421        H433   1.082       .  S
C422        C483   1.489       .  S
C423        C501   1.500       .  S
N436        C441   1.334       .  A
N436        C440   1.343       .  A
N436        H468   1.033       .  S
N437        C444   1.335       .  A
N437        C445   1.329       .  A
N438        C443   1.349       .  A
N438        C442   1.343       .  A
N438        H469   1.045       .  S
N439        C446   1.332       .  A
N439        C447   1.337       .  A
C440        C448   1.386       .  A
C440        C456   1.410       .  A
C441        C457   1.388       .  A
C441        C449   1.385       .  A
C442        C450   1.389       .  A
C442        C459   1.400       .  A
C443        C458   1.415       .  A
C443        C451   1.386       .  A
C444        C456   1.404       .  A
C444        C452   1.392       .  A
C445        C459   1.393       .  A
C445        C453   1.385       .  A
C446        C454   1.382       .  A
C446        C457   1.396       .  A
C447        C455   1.387       .  A
C447        C458   1.415       .  A
C448        C449   1.377       .  A
C448        H460   1.081       .  S
C449        H461   1.082       .  S
C450        C451   1.385       .  A
C450        H462   1.082       .  S
C451        H463   1.082       .  S
C452        C453   1.384       .  A
C452        H464   1.083       .  S
C453        H465   1.082       .  S
C454        C455   1.385       .  A
C454        H466   1.077       .  S
C455        H467   1.083       .  S
C456        C535   1.508       .  S
C459        C657   1.498       .  S
C470        C471   1.376       .  A
C470        C475   1.434       .  A
C471        C472   1.406       .  A
C471        H476   1.070       .  S
C472        C719   1.504       .  S
C472        C473   1.396       .  A
C473        C474   1.398       .  A
C473        H477   1.060       .  S
C474        C475   1.431       .  A
C475        H478   1.071       .  S
C479        C480   1.445       .  A
C479        C484   1.373       .  A
C480        C481   1.435       .  A
C480        H485   1.073       .  S
C481        C482   1.414       .  A
C482        C483   1.398       .  A
C482        H486   1.077       .  S
C483        C484   1.389       .  A
C484        H487   1.077       .  S
C488        C489   1.427       .  A
C488        C493   1.381       .  A
C489        C490   1.432       .  A
C489        H494   1.068       .  S
C490        C491   1.412       .  A
C491        C492   1.397       .  A
C491        H495   1.061       .  S
C492        C564   1.508       .  S
C492        C493   1.402       .  A
C493        H496   1.076       .  S
C497        C498   1.432       .  A
C497        C502   1.400       .  A
C498        C499   1.443       .  A
C498        H503   1.067       .  S
C499        C500   1.375       .  A
C500        C501   1.398       .  A
C500        H504   1.073       .  S
C501        C502   1.393       .  A
C502        H505   1.065       .  S
C506        C507   1.414       .  A
C506        C511   1.434       .  A
C507        C508   1.396       .  A
C507        H512   1.065       .  S
C508        C686   1.511       .  S
C508        C509   1.407       .  A
C509        C510   1.384       .  A
C509        H513   1.076       .  S
C510        C511   1.427       .  A
C511        H514   1.068       .  S
C515        C516   1.405       .  A
C515        C520   1.436       .  A
C516        C517   1.395       .  A
C516        H521   1.074       .  S
C517        C565   1.494       .  S
C517        C518   1.394       .  A
C518        C519   1.374       .  A
C518        H522   1.073       .  S
C519        C520   1.445       .  A
C520        H523   1.069       .  S
C524        C525   1.370       .  A
C524        C529   1.446       .  A
C525        C526   1.398       .  A
C525        H530   1.075       .  S
C526        C562   1.495       .  S
C526        C527   1.392       .  A
C527        C528   1.409       .  A
C527        H531   1.070       .  S
C528        C529   1.438       .  A
C529        H532   1.073       .  S
C533        C534   1.396       .  A
C533        C538   1.431       .  A
C534        C535   1.399       .  A
C534        H539   1.051       .  S
C535        C536   1.396       .  A
C536        C537   1.379       .  A
C536        H540   1.068       .  S
C537        C538   1.431       .  A
C538        H541   1.071       .  S
N542        C547   1.337       .  A
N542        C546   1.341       .  A
N542        H574   1.037       .  S
N543        C550   1.338       .  A
N543        C551   1.342       .  A
N544        C549   1.335       .  A
N544        C548   1.336       .  A
N544        H575   1.034       .  S
N545        C552   1.344       .  A
N545        C553   1.344       .  A
C546        C554   1.393       .  A
C546        C562   1.404       .  A
C547        C563   1.397       .  A
C547        C555   1.385       .  A
C548        C556   1.386       .  A
C548        C565   1.395       .  A
C549        C564   1.395       .  A
C549        C557   1.393       .  A
C550        C562   1.406       .  A
C550        C558   1.386       .  A
C551        C565   1.409       .  A
C551        C559   1.394       .  A
C552        C560   1.392       .  A
C552        C563   1.418       .  A
C553        C561   1.382       .  A
C553        C564   1.409       .  A
C554        C555   1.387       .  A
C554        H566   1.082       .  S
C555        H567   1.082       .  S
C556        C557   1.386       .  A
C556        H568   1.083       .  S
C557        H569   1.082       .  S
C558        C559   1.388       .  A
C558        H570   1.081       .  S
C559        H571   1.082       .  S
C560        C561   1.385       .  A
C560        H572   1.082       .  S
C561        H573   1.082       .  S
C563        C623   1.509       .  S
N576        C581   1.332       .  A
N576        C580   1.339       .  A
N576        H608   1.032       .  S
N577        C584   1.337       .  A
N577        C585   1.330       .  A
N578        C583   1.349       .  A
N578        C582   1.343       .  A
N578        H609   1.045       .  S
N579        C586   1.332       .  A
N579        C587   1.338       .  A
C580        C588   1.384       .  A
C580        C596   1.397       .  A
C581        C597   1.384       .  A
C581        C589   1.387       .  A
C582        C590   1.391       .  A
C582        C599   1.403       .  A
C583        C598   1.412       .  A
C583        C591   1.384       .  A
C584        C596   1.409       .  A
C584        C592   1.392       .  A
C585        C599   1.395       .  A
C585        C593   1.386       .  A
C586        C594   1.383       .  A
C586        C597   1.399       .  A
C587        C595   1.387       .  A
C587        C598   1.413       .  A
C588        C589   1.376       .  A
C588        H600   1.082       .  S
C589        H601   1.082       .  S
C590        C591   1.387       .  A
C590        H602   1.082       .  S
C591        H603   1.082       .  S
C592        C593   1.383       .  A
C592        H604   1.082       .  S
C593        H605   1.082       .  S
C594        C595   1.385       .  A
C594        H606   1.078       .  S
C595        H607   1.083       .  S
C596        C745   1.501       .  S
C598        C630   1.518       .  S
C610        C611   1.433       .  A
C610        C615   1.404       .  A
C611        C612   1.434       .  A
C611        H616   1.073       .  S
C612        C613   1.381       .  A
C613        C614   1.382       .  A
C613        H617   1.080       .  S
C614        C718   1.501       .  S
C614        C615   1.410       .  A
C615        H618   1.060       .  S
C619        C620   1.438       .  A
C619        C624   1.421       .  A
C620        C621   1.447       .  A
C620        H625   1.065       .  S
C621        C622   1.374       .  A
C622        C623   1.396       .  A
C622        H626   1.068       .  S
C623        C624   1.407       .  A
C624        H627   1.076       .  S
C628        C629   1.404       .  A
C628        C633   1.481       .  A
C629        C630   1.404       .  A
C629        H634   1.078       .  S
C630        C631   1.411       .  A
C631        C632   1.398       .  A
C631        H635   1.068       .  S
C632       C1192   1.591       .  S
C632        C633   1.479       .  A
C633        H636   1.078       .  S
C637       C1197   1.442       .  S
C637        C638   1.418       .  A
C637        C642   1.400       .  A
C638        C639   1.410       .  A
C638        H643   1.083       .  S
C639        C640   1.398       .  A
C640        C641   1.379       .  A
C640        H644   1.060       .  S
C641        C720   1.512       .  S
C641        C642   1.374       .  A
C642        H645   1.084       .  S
C646        C647   1.373       .  A
C646        C651   1.449       .  A
C647        C648   1.398       .  A
C647        H652   1.063       .  S
C648        C685   1.518       .  S
C648        C649   1.407       .  A
C649        C650   1.425       .  A
C649        H653   1.073       .  S
C650        C651   1.440       .  A
C651        H654   1.065       .  S
C655        C656   1.377       .  A
C655        C660   1.436       .  A
C656        C657   1.394       .  A
C656        H661   1.078       .  S
C657        C658   1.402       .  A
C658        C659   1.398       .  A
C658        H662   1.061       .  S
C659        C660   1.433       .  A
C660        H663   1.074       .  S
N664        C669   1.342       .  A
N664        C668   1.346       .  A
N664        H696   1.017       .  S
N665        C672   1.339       .  A
N665        C673   1.342       .  A
N666        C671   1.338       .  A
N666        C670   1.339       .  A
N666        H697   1.015       .  S
N667        C674   1.343       .  A
N667        C675   1.342       .  A
C668        C676   1.392       .  A
C668        C684   1.410       .  A
C669        C685   1.407       .  A
C669        C677   1.383       .  A
C670        C678   1.385       .  A
C670        C687   1.395       .  A
C671        C686   1.394       .  A
C671        C679   1.391       .  A
C672        C684   1.408       .  A
C672        C680   1.386       .  A
C673        C687   1.413       .  A
C673        C681   1.393       .  A
C674        C682   1.394       .  A
C674        C685   1.420       .  A
C675        C683   1.383       .  A
C675        C686   1.410       .  A
C676        C677   1.389       .  A
C676        H688   1.082       .  S
C677        H689   1.081       .  S
C678        C679   1.385       .  A
C678        H690   1.082       .  S
C679        H691   1.082       .  S
C680        C681   1.388       .  A
C680        H692   1.081       .  S
C681        H693   1.083       .  S
C682        C683   1.389       .  A
C682        H694   1.083       .  S
C683        H695   1.082       .  S
C684        C734   1.503       .  S
N698        C703   1.344       .  A
N698        C702   1.336       .  A
N698        H730   1.037       .  S
N699        C706   1.337       .  A
N699        C707   1.347       .  A
N700        C705   1.331       .  A
N700        C704   1.336       .  A
N700        H731   1.046       .  S
N701        C708   1.335       .  A
N701        C709   1.333       .  A
C702        C710   1.382       .  A
C702        C718   1.389       .  A
C703        C719   1.401       .  A
C703        C711   1.389       .  A
C704        C712   1.385       .  A
C704        C721   1.390       .  A
C705        C720   1.384       .  A
C705        C713   1.381       .  A
C706        C718   1.415       .  A
C706        C714   1.392       .  A
C707        C721   1.423       .  A
C707        C715   1.386       .  A
C708        C716   1.384       .  A
C708        C719   1.406       .  A
C709        C717   1.387       .  A
C709        C720   1.392       .  A
C710        C711   1.378       .  A
C710        H722   1.083       .  S
C711        H723   1.083       .  S
C712        C713   1.386       .  A
C712        H724   1.082       .  S
C713        H725   1.081       .  S
C714        C715   1.389       .  A
C714        H726   1.082       .  S
C715        H727   1.082       .  S
C716        C717   1.379       .  A
C716        H728   1.080       .  S
C717        H729   1.082       .  S
C732        C733   1.415       .  A
C732        C737   1.434       .  A
C733        C734   1.399       .  A
C733        H738   1.072       .  S
C734        C735   1.401       .  A
C735        C736   1.372       .  A
C735        H739   1.075       .  S
C736        C737   1.442       .  A
C737        H740   1.073       .  S
C741        C742   1.434       .  A
C741        C746   1.399       .  A
C742        C743   1.435       .  A
C742        H747   1.071       .  S
C743        C744   1.377       .  A
C744        C745   1.393       .  A
C744        H748   1.067       .  S
C745        C746   1.403       .  A
C746        H749   1.062       .  S
C750        C751   1.438       .  A
C750        C755   1.410       .  A
C751        C752   1.428   1_554  A
C751        H756   1.067       .  S
C752        C753   1.382       .  A
C753        C754   1.404   1_556  A
C753        H757   1.076       .  S
C754       C1016   1.509       .  S
C754        C755   1.394       .  A
C755        H758   1.063       .  S
C759        C760   1.428       .  A
C759        C764   1.407       .  A
C760        C761   1.437   1_556  A
C760        H765   1.072       .  S
C761        C762   1.373       .  A
C762        C763   1.393   1_554  A
C762        H766   1.072       .  S
C763        C895   1.495       .  S
C763        C764   1.393       .  A
C764        H767   1.071       .  S
C768        C769   1.373       .  A
C768        C773   1.439   1_455  A
C769        C770   1.392   1_455  A
C769        H774   1.061       .  S
C770       C1017   1.496       .  S
C770        C771   1.389       .  A
C771        C772   1.403       .  A
C771        H775   1.072       .  S
C772        C773   1.431       .  A
C773        H776   1.069       .  S
C777        C778   1.438       .  A
C777        C782   1.406       .  A
C778        C779   1.428   1_455  A
C778        H783   1.060       .  S
C779        C780   1.382       .  A
C780        C781   1.395   1_655  A
C780        H784   1.071       .  S
C781       C1141   1.497   1_455  S
C781        C782   1.402       .  A
C782        H785   1.074       .  S
C786        C787   1.385       .  A
C786        C791   1.426   1_565  A
C787        C788   1.404   1_565  A
C787        H792   1.078       .  S
C788        C894   1.508       .  S
C788        C789   1.396       .  A
C789        C790   1.408       .  A
C789        H793   1.065       .  S
C790        C791   1.431       .  A
C791        H794   1.064       .  S
C795        C796   1.445   1_545  A
C795        C800   1.382       .  A
C796        C797   1.431       .  A
C796        H801   1.079       .  S
C797        C798   1.394       .  A
C798        C799   1.399       .  A
C798        H802   1.059       .  S
C799       C1138   1.492       .  S
C799        C800   1.388   1_565  A
C800        H803   1.077       .  S
C804        C805   1.399       .  A
C804        C809   1.474   1_556  A
C805        C806   1.391       .  A
C805        H810   1.067       .  S
C806        C862   1.522       .  S
C806        C807   1.424   1_556  A
C807        C808   1.407       .  A
C807        H811   1.078       .  S
C808       C1182   1.581       .  S
C808        C809   1.474       .  A
C809        H812   1.081       .  S
C813       C1199   1.391       .  S
C813        C814   1.375       .  A
C813        C818   1.374       .  A
C814        C815   1.374       .  A
C814        H819   1.071       .  S
C815        C982   1.469       .  S
C815        C816   1.413   1_554  A
C816        C817   1.381       .  A
C816        H820   1.073       .  S
C817        C818   1.384   1_556  A
C818        H821   1.081   1_554  S
C822        C823   1.446   1_545  A
C822        C827   1.372       .  A
C823        C824   1.437       .  A
C823        H828   1.071       .  S
C824        C825   1.402       .  A
C825        C826   1.382       .  A
C825        H829   1.070       .  S
C826        C896   1.488       .  S
C826        C827   1.402   1_565  A
C827        H830   1.076       .  S
C831        C832   1.434   1_565  A
C831        C836   1.373       .  A
C832        C833   1.438       .  A
C832        H837   1.072       .  S
C833        C834   1.404       .  A
C834        C835   1.402       .  A
C834        H838   1.054       .  S
C835       C1105   1.501       .  S
C835        C836   1.388   1_545  A
C836        H839   1.069       .  S
N840        C845   1.338       .  A
N840        C844   1.342       .  A
N840        H872   1.031       .  S
N841        C848   1.342       .  A
N841        C849   1.332       .  A
N842        C847   1.340       .  A
N842        C846   1.332       .  A
N842        H873   1.041       .  S
N843        C850   1.345       .  A
N843        C851   1.348       .  A
C844        C852   1.386       .  A
C844        C860   1.401   1_556  A
C845        C861   1.402   1_565  A
C845        C853   1.388       .  A
C846        C854   1.390       .  A
C846        C863   1.391       .  A
C847        C862   1.386   1_554  A
C847        C855   1.381       .  A
C848        C860   1.392       .  A
C848        C856   1.382       .  A
C849        C863   1.395   1_565  A
C849        C857   1.392       .  A
C850        C858   1.392       .  A
C850        C861   1.424       .  A
C851        C859   1.385       .  A
C851        C862   1.425       .  A
C852        C853   1.380       .  A
C852        H864   1.083       .  S
C853        H865   1.081       .  S
C854        C855   1.375       .  A
C854        H866   1.081       .  S
C855        H867   1.083       .  S
C856        C857   1.370       .  A
C856        H868   1.081       .  S
C857        H869   1.083       .  S
C858        C859   1.390       .  A
C858        H870   1.082       .  S
C859        H871   1.081       .  S
C860       C1034   1.499       .  S
C861       C1156   1.499   1_545  S
C863        C928   1.465       .  S
N874        C879   1.339       .  A
N874        C878   1.334       .  A
N874        H906   1.028       .  S
N875        C882   1.342       .  A
N875        C883   1.342   1_556  A
N876        C881   1.341       .  A
N876        C880   1.336       .  A
N876        H907   1.036       .  S
N877        C884   1.341       .  A
N877        C885   1.335       .  A
C878        C886   1.391       .  A
C878        C894   1.398   1_565  A
C879        C895   1.401       .  A
C879        C887   1.387       .  A
C880        C888   1.387       .  A
C880        C897   1.400       .  A
C881        C896   1.395   1_545  A
C881        C889   1.390       .  A
C882        C894   1.410       .  A
C882        C890   1.383       .  A
C883        C897   1.421       .  A
C883        C891   1.393   1_554  A
C884        C892   1.395       .  A
C884        C895   1.411   1_554  A
C885        C893   1.385       .  A
C885        C896   1.406       .  A
C886        C887   1.384       .  A
C886        H898   1.083       .  S
C887        H899   1.082       .  S
C888        C889   1.383       .  A
C888        H900   1.081       .  S
C889        H901   1.082       .  S
C890        C891   1.386       .  A
C890        H902   1.082       .  S
C891        H903   1.082       .  S
C892        C893   1.390       .  A
C892        H904   1.082       .  S
C893        H905   1.080       .  S
C897        C912   1.505       .  S
C908        C909   1.440       .  A
C908        C913   1.417       .  A
C909        C910   1.450   1_554  A
C909        H914   1.066       .  S
C910        C911   1.373       .  A
C911        C912   1.394   1_556  A
C911        H915   1.068       .  S
C912        C913   1.405       .  A
C913        H916   1.072       .  S
C917        C918   1.390       .  A
C917        C922   1.435   1_556  A
C918        C919   1.398   1_556  A
C918        H923   1.053       .  S
C919        C984   1.495       .  S
C919        C920   1.387       .  A
C920        C921   1.377       .  A
C920        H924   1.079       .  S
C921        C922   1.439       .  A
C922        H925   1.076       .  S
C926        C927   1.383       .  A
C926        C931   1.387   1_565  A
C927        C928   1.405   1_565  A
C927        H932   1.078       .  S
C928        C929   1.372       .  A
C929        C930   1.378       .  A
C929        H933   1.078       .  S
C930       C1171   1.391       .  S
C930        C931   1.375       .  A
C931        H934   1.082   1_545  S
C935       C1216   1.576       .  S
C935        C936   1.480       .  A
C935        C940   1.398       .  A
C936        C937   1.480   1_545  A
C936        H941   1.081       .  S
C937        C938   1.398       .  A
C938        C939   1.401       .  A
C938        H942   1.068       .  S
C939       C1107   1.512       .  S
C939        C940   1.411   1_565  A
C940        H943   1.080       .  S
C944        C945   1.366       .  A
C944        C949   1.453   1_655  A
C945        C946   1.389   1_655  A
C945        H950   1.066       .  S
C946       C1019   1.497       .  S
C946        C947   1.402       .  A
C947        C948   1.414       .  A
C947        H951   1.074       .  S
C948        C949   1.441       .  A
C949        H952   1.066       .  S
C953        C954   1.437       .  A
C953        C958   1.391       .  A
C954        C955   1.439   1_655  A
C954        H959   1.074       .  S
C955        C956   1.381       .  A
C956        C957   1.388   1_455  A
C956        H960   1.078       .  S
C957       C1104   1.496       .  S
C957        C958   1.399       .  A
C958        H961   1.061       .  S
N962        C967   1.346       .  A
N962        C966   1.335       .  A
N962        H994   1.030   1_556  S
N963        C970   1.331       .  A
N963        C971   1.339       .  A
N964        C969   1.343       .  A
N964        C968   1.344       .  A
N964        H995   1.044       .  S
N965        C972   1.330       .  A
N965        C973   1.327       .  A
C966        C974   1.399       .  A
C966        C982   1.410   1_556  A
C967        C983   1.395   1_455  A
C967        C975   1.380       .  A
C968        C976   1.384       .  A
C968        C985   1.405       .  A
C969        C984   1.401       .  A
C969        C977   1.389       .  A
C970        C982   1.410       .  A
C970        C978   1.394       .  A
C971        C985   1.395   1_455  A
C971        C979   1.379       .  A
C972        C980   1.391       .  A
C972        C983   1.394       .  A
C973        C981   1.386       .  A
C973        C984   1.388   1_556  A
C974        C975   1.377       .  A
C974        H986   1.083       .  S
C975        H987   1.082       .  S
C976        C977   1.385       .  A
C976        H988   1.082       .  S
C977        H989   1.082       .  S
C978        C979   1.375       .  A
C978        H990   1.080       .  S
C979        H991   1.083       .  S
C980        C981   1.382       .  A
C980        H992   1.082       .  S
C981        H993   1.082       .  S
C983       C1068   1.502       .  S
C985       C1052   1.507       .  S
N996       C1001   1.341       .  A
N996       C1000   1.336       .  A
N996       H1028   1.015       .  S
N997       C1004   1.344       .  A
N997       C1005   1.345       .  A
N998       C1003   1.338       .  A
N998       C1002   1.334       .  A
N998       H1029   1.026       .  S
N999       C1006   1.337       .  A
N999       C1007   1.332       .  A
C1000      C1008   1.391       .  A
C1000      C1016   1.393   1_556  A
C1001      C1017   1.402       .  A
C1001      C1009   1.385       .  A
C1002      C1010   1.387       .  A
C1002      C1019   1.394       .  A
C1003      C1018   1.387   1_554  A
C1003      C1011   1.386       .  A
C1004      C1016   1.411       .  A
C1004      C1012   1.383       .  A
C1005      C1019   1.423   1_655  A
C1005      C1013   1.393       .  A
C1006      C1014   1.398       .  A
C1006      C1017   1.410   1_455  A
C1007      C1015   1.385       .  A
C1007      C1018   1.398       .  A
C1008      C1009   1.386       .  A
C1008      H1020   1.082       .  S
C1009      H1021   1.082       .  S
C1010      C1011   1.383       .  A
C1010      H1022   1.081       .  S
C1011      H1023   1.082       .  S
C1012      C1013   1.386       .  A
C1012      H1024   1.082       .  S
C1013      H1025   1.083       .  S
C1014      C1015   1.392       .  A
C1014      H1026   1.082       .  S
C1015      H1027   1.082       .  S
C1018      C1043   1.495       .  S
C1030      C1031   1.427       .  A
C1030      C1035   1.407       .  A
C1031      C1032   1.437   1_554  A
C1031      H1036   1.065       .  S
C1032      C1033   1.366       .  A
C1033      C1034   1.396   1_556  A
C1033      H1037   1.077       .  S
C1034      C1035   1.408       .  A
C1035      H1038   1.065       .  S
C1039      C1040   1.440       .  A
C1039      C1044   1.398       .  A
C1040      C1041   1.438   1_556  A
C1040      H1045   1.073       .  S
C1041      C1042   1.383       .  A
C1042      C1043   1.396   1_554  A
C1042      H1046   1.080       .  S
C1043      C1044   1.385       .  A
C1044      H1047   1.051       .  S
C1048      C1209   1.584       .  S
C1048      C1049   1.483   1_455  A
C1048      C1053   1.395       .  A
C1049      C1050   1.484       .  A
C1049      H1054   1.081       .  S
C1050      C1051   1.401       .  A
C1051      C1052   1.399       .  A
C1051      H1055   1.077       .  S
C1052      C1053   1.412   1_655  A
C1053      H1056   1.078       .  S
C1057      C1193   1.388       .  S
C1057      C1058   1.377   1_455  A
C1057      C1062   1.377       .  A
C1058      C1059   1.387       .  A
C1058      H1063   1.081       .  S
C1059      C1060   1.382       .  A
C1060      C1061   1.403   1_655  A
C1060      H1064   1.069       .  S
C1061      C1106   1.464       .  S
C1061      C1062   1.371       .  A
C1062      H1065   1.079       .  S
C1066      C1067   1.376       .  A
C1066      C1071   1.436       .  A
C1067      C1068   1.390       .  A
C1067      H1072   1.065       .  S
C1068      C1069   1.396   1_655  A
C1069      C1070   1.404       .  A
C1069      H1073   1.055       .  S
C1070      C1071   1.442   1_455  A
C1071      H1074   1.072       .  S
C1075      C1076   1.376   1_455  A
C1075      C1080   1.448   1_455  A
C1076      C1077   1.394       .  A
C1076      H1081   1.072   1_655  S
C1077      C1139   1.472       .  S
C1077      C1078   1.375       .  A
C1078      C1079   1.397       .  A
C1078      H1082   1.077       .  S
C1079      C1080   1.438       .  A
C1080      H1083   1.067       .  S
N1084      C1089   1.335       .  A
N1084      C1088   1.333       .  A
N1084      H1116   1.032       .  S
N1085      C1092   1.335       .  A
N1085      C1093   1.337       .  A
N1086      C1091   1.336       .  A
N1086      C1090   1.346       .  A
N1086      H1117   1.042       .  S
N1087      C1094   1.341       .  A
N1087      C1095   1.330       .  A
C1088      C1096   1.387       .  A
C1088      C1104   1.391       .  A
C1089      C1105   1.396   1_565  A
C1089      C1097   1.389       .  A
C1090      C1098   1.380       .  A
C1090      C1107   1.399   1_545  A
C1091      C1106   1.396       .  A
C1091      C1099   1.390       .  A
C1092      C1104   1.405   1_455  A
C1092      C1100   1.392       .  A
C1093      C1107   1.410       .  A
C1093      C1101   1.386       .  A
C1094      C1102   1.378       .  A
C1094      C1105   1.391       .  A
C1095      C1103   1.393       .  A
C1095      C1106   1.397   1_655  A
C1096      C1097   1.383       .  A
C1096      H1108   1.083       .  S
C1097      H1109   1.082       .  S
C1098      C1099   1.379       .  A
C1098      H1110   1.082       .  S
C1099      H1111   1.082       .  S
C1100      C1101   1.388       .  A
C1100      H1112   1.082       .  S
C1101      H1113   1.082       .  S
C1102      C1103   1.371       .  A
C1102      H1114   1.082       .  S
C1103      H1115   1.083       .  S
N1118      C1123   1.342       .  A
N1118      C1122   1.346       .  A
N1118      H1150   1.040       .  S
N1119      C1126   1.343       .  A
N1119      C1127   1.343       .  A
N1120      C1125   1.340       .  A
N1120      C1124   1.331       .  A
N1120      H1151   1.037       .  S
N1121      C1128   1.330   1_455  A
N1121      C1129   1.333       .  A
C1122      C1130   1.390       .  A
C1122      C1138   1.408   1_545  A
C1123      C1139   1.394       .  A
C1123      C1131   1.379       .  A
C1124      C1132   1.380       .  A
C1124      C1141   1.387   1_455  A
C1125      C1140   1.401   1_565  A
C1125      C1133   1.389       .  A
C1126      C1138   1.407       .  A
C1126      C1134   1.388       .  A
C1127      C1141   1.406       .  A
C1127      C1135   1.391       .  A
C1128      C1136   1.393   1_655  A
C1128      C1139   1.390       .  A
C1129      C1137   1.383       .  A
C1129      C1140   1.393       .  A
C1130      C1131   1.380       .  A
C1130      H1142   1.082       .  S
C1131      H1143   1.082       .  S
C1132      C1133   1.384       .  A
C1132      H1144   1.082       .  S
C1133      H1145   1.082       .  S
C1134      C1135   1.381       .  A
C1134      H1146   1.083       .  S
C1135      H1147   1.082       .  S
C1136      C1137   1.382       .  A
C1136      H1148   1.083       .  S
C1137      H1149   1.081       .  S
C1140      C1165   1.505       .  S
C1152      C1153   1.439   1_545  A
C1152      C1157   1.369       .  A
C1153      C1154   1.432       .  A
C1153      H1158   1.075   1_565  S
C1154      C1155   1.409       .  A
C1155      C1156   1.410       .  A
C1155      H1159   1.069       .  S
C1156      C1157   1.394   1_565  A
C1157      H1160   1.076       .  S
C1161      C1162   1.448   1_565  A
C1161      C1166   1.372       .  A
C1162      C1163   1.456       .  A
C1162      H1167   1.073       .  S
C1163      C1164   1.410       .  A
C1164      C1165   1.400       .  A
C1164      H1168   1.051       .  S
C1165      C1166   1.389   1_545  A
C1166      H1169   1.068       .  S
O1170      C1197   1.267       .  A
O1170     Mn1196   2.080       .  S
C1171      O1204   1.255       .  A
C1171      O1201   1.255       .  A
O1172     Mn1190   2.104       .  S
O1172     Mn1194   2.130       .  S
O1172     Mn1196   2.124       .  S
O1172     Mn1179   2.317       .  S
O1173      C1183   1.267       .  A
O1173     Mn1207   2.023       .  S
O1174      C1197   1.270       .  A
O1174     Mn1190   2.030       .  S
O1175      C1202   1.291       .  A
O1175     Mn1194   2.260       .  S
O1176     Mn1207   1.996       .  S
O1176     Mn1196   1.954       .  S
O1176      C1192   1.249       .  S
C1177      O1180   1.290       .  A
C1177      O1203   1.246       .  S
O1178     Mn1198   2.102       .  S
O1178     Mn1212   2.130       .  S
O1178     Mn1194   2.134       .  S
O1178     Mn1179   2.309       .  S
Mn1179     O1185   2.312       .  S
Mn1179     O1208   2.343       .  S
Mn1179     O1184   2.342       .  S
Mn1179     O1211   2.337       .  S
O1180     Mn1194   2.249       .  S
O1181      C1183   1.265       .  A
O1181     Mn1188   2.074       .  S
C1182      O1208   1.274       .  A
C1182      O1195   1.262       .  S
O1184      C1209   1.273       .  A
O1185     Mn1188   2.126       .  S
O1185     Mn1207   2.097       .  S
O1185     Mn1194   2.131       .  S
O1186     Mn1190   1.970       .  S
O1186     Mn1212   2.067       .  S
O1186      C1209   1.265       .  S
C1187      O1213   1.266       .  A
C1187      O1189   1.268       .  A
Mn1188     O1201   2.016       .  S
Mn1188     O1203   1.943       .  S
Mn1188     O1195   2.045       .  S
O1189     Mn1212   2.079       .  S
Mn1190     O1206   2.033       .  S
Mn1190     O1200   1.979       .  S
O1191      C1193   1.258       .  A
O1191     Mn1196   2.021       .  S
C1192      O1210   1.292       .  A
C1193      O1206   1.254       .  A
Mn1194     O1210   2.259       .  S
O1195     Mn1198   1.959       .  S
Mn1196     O1214   2.050       .  S
Mn1198     O1205   2.016       .  S
Mn1198     O1213   2.024       .  S
Mn1198     O1203   1.981       .  S
C1199      O1205   1.249       .  A
C1199      O1215   1.263       .  A
O1200     Mn1212   1.937       .  S
O1200      C1202   1.244       .  S
O1204     Mn1207   2.046       .  S
Mn1207     O1214   1.951       .  S
O1211      C1216   1.273       .  A
Mn1212     O1215   2.029       .  S
O1214      C1216   1.262       .  S
