geometry optimzed in LAMMPS
_audit_creation_date              2020-11-30 
_audit_creation_method            'lammps2cif' 
_symmetry_space_group_name_H-M    'P1' 
_symmetry_Int_Tables_number       1 
_symmetry_cell_setting            triclinic 
loop_ 
_symmetry_equiv_pos_as_xyz 
  x,y,z 
_cell_length_a                    62.83355785 
_cell_length_b                    62.43770694502498 
_cell_length_c                    62.46676267601572 
_cell_angle_alpha                 89.95459176967746 
_cell_angle_beta                  90.14545321822465 
_cell_angle_gamma                 90.11004606747717 
loop_ 
_atom_site_label 
_atom_site_type_symbol 
_atom_site_fract_x 
_atom_site_fract_y 
_atom_site_fract_z 
_atom_site_charge 
Zn1        Zn  0.48471479  0.47978810  0.98424832     1.49700
Zn2        Zn  0.52111034  0.48106262  0.02023563     1.49400
Zn3        Zn  0.51930813  0.51713438  0.98331044     1.49100
Zn4        Zn  0.48467699  0.51640285  0.02001616     1.49500
O5          O  0.50254497  0.49857202  0.00197365    -1.83200
O6          O  0.48909273  0.44916996  0.99264237    -0.73800
O7          O  0.55166840  0.48565744  0.01152184    -0.73600
O8          O  0.51311127  0.51037367  0.95236501    -0.73100
O9          O  0.51427778  0.44947370  0.01758532    -0.73800
O10         O  0.49096722  0.48270663  0.95276473    -0.73400
O11         O  0.55072367  0.51195328  0.98750869    -0.74000
O12         O  0.48941385  0.54791646  0.01477451    -0.73400
O13         O  0.51770989  0.48843170  0.05161226    -0.74100
O14         O  0.51318260  0.54850129  0.98862255    -0.73500
O15         O  0.49076974  0.51138538  0.05114162    -0.74000
O16         O  0.45391841  0.51030841  0.01404355    -0.73900
O17         O  0.45369150  0.48623967  0.98792488    -0.73700
C18         C  0.50104258  0.43935174  0.00588375     0.78100
C19         C  0.56107400  0.49845072  0.99870258     0.78600
C20         C  0.50228587  0.49614186  0.94253493     0.77600
C21         C  0.50108146  0.55825460  0.00173594     0.77900
C22         C  0.50450913  0.50040901  0.06134797     0.79100
C23         C  0.44389850  0.49855795  0.00073060     0.78100
Zn24       Zn  0.51661807  0.98037700  0.52346238     1.49700
Zn25       Zn  0.48115544  0.98078607  0.48577934     1.49400
Zn26       Zn  0.47914865  0.01576647  0.52247411     1.49100
Zn27       Zn  0.51705384  0.01686970  0.48814221     1.49500
O28         O  0.49849680  0.99834799  0.50507103    -1.83200
O29         O  0.51211817  0.94883751  0.51660508    -0.73800
O30         O  0.44926909  0.98488454  0.49007412    -0.73600
O31         O  0.48460789  0.01120322  0.55413109    -0.73100
O32         O  0.48791358  0.94975466  0.49061871    -0.73800
O33         O  0.50934717  0.98582184  0.55444016    -0.73400
O34         O  0.44861834  0.00813746  0.51683420    -0.74000
O35         O  0.51004305  0.04762043  0.49344281    -0.73400
O36         O  0.48769330  0.98770156  0.45505150    -0.74100
O37         O  0.48225801  0.04729055  0.51542659    -0.73500
O38         O  0.51338086  0.01206087  0.45658730    -0.74000
O39         O  0.54799724  0.01212438  0.49466296    -0.73900
O40         O  0.54829853  0.98699899  0.51978382    -0.73700
C41         C  0.50022139  0.93929371  0.50303906     0.78100
C42         C  0.43895582  0.99620872  0.50344785     0.78600
C43         C  0.49690156  0.99854789  0.56431328     0.77600
C44         C  0.49562522  0.05735602  0.50385684     0.77900
C45         C  0.50086087  0.00018696  0.44584372     0.79100
C46         C  0.55811023  0.99991579  0.50742305     0.78100
Zn47       Zn  0.98236804  0.47763519  0.50895192     1.49700
Zn48       Zn  0.02076116  0.48179196  0.47501157     1.49400
Zn49       Zn  0.98255274  0.51577846  0.47515376     1.49100
Zn50       Zn  0.01583838  0.51608278  0.51336180     1.49500
O51         O  0.00048118  0.49780972  0.49313551    -1.83200
O52         O  0.98891936  0.44743333  0.49999421    -0.73800
O53         O  0.01741632  0.48947404  0.44375465    -0.73600
O54         O  0.95142414  0.50922362  0.47983466    -0.73100
O55         O  0.01527683  0.44996716  0.47652366    -0.73800
O56         O  0.95135813  0.48252315  0.50315358    -0.73400
O57         O  0.98954605  0.51118735  0.44400052    -0.74000
O58         O  0.00903577  0.54778594  0.50944067    -0.73400
O59         O  0.05136269  0.48771962  0.48382683    -0.74100
O60         O  0.98687723  0.54714449  0.48177528    -0.73500
O61         O  0.04755387  0.51211823  0.50942605    -0.74000
O62         O  0.00810976  0.50807951  0.54366447    -0.73900
O63         O  0.98558552  0.48076038  0.54101152    -0.73700
C64         C  0.00194882  0.43876588  0.48701622     0.78100
C65         C  0.00381834  0.50088045  0.43383799     0.78600
C66         C  0.94139235  0.49574959  0.49138550     0.77600
C67         C  0.99738413  0.55751906  0.49584346     0.77900
C68         C  0.05936984  0.50053699  0.49755182     0.79100
C69         C  0.99610823  0.49404818  0.55231005     0.78100
Zn70       Zn  0.98484451  0.02173990  0.01773922     1.49700
Zn71       Zn  0.02038537  0.02264380  0.98054234     1.49400
Zn72       Zn  0.02071601  0.98575763  0.01684357     1.49100
Zn73       Zn  0.98446058  0.98668820  0.98062776     1.49500
O74         O  0.00265971  0.00424191  0.99897319    -1.83200
O75         O  0.99127490  0.05307312  0.01295540    -0.73800
O76         O  0.05161007  0.01667467  0.98512567    -0.73600
O77         O  0.01599925  0.99056628  0.04859715    -0.73100
O78         O  0.01536826  0.05391342  0.98702326    -0.73800
O79         O  0.99004359  0.01454651  0.04895933    -0.73400
O80         O  0.05167966  0.99135480  0.01011541    -0.74000
O81         O  0.98941971  0.95533254  0.98614003    -0.73400
O82         O  0.01405608  0.01808909  0.94912991    -0.74100
O83         O  0.01398845  0.95440997  0.01173107    -0.73500
O84         O  0.98877046  0.99319595  0.94920064    -0.74000
O85         O  0.95372162  0.99201248  0.98682003    -0.73900
O86         O  0.95343217  0.01666550  0.01229141    -0.73700
C87         C  0.00347725  0.06351864  0.00040067     0.78100
C88         C  0.06160900  0.00386453  0.99740125     0.78600
C89         C  0.00275999  0.00205709  0.05883627     0.77600
C90         C  0.00113297  0.94487214  0.99911996     0.77900
C91         C  0.00099662  0.00603291  0.93919380     0.79100
C92         C  0.94359915  0.00408091  0.99962499     0.78100
C93         C  0.75423433  0.48115737  0.00721250     0.81200
N94         N  0.73265084  0.48031207  0.00695854    -0.77100
C95         C  0.72123578  0.49214374  0.99282514     0.83600
N96         N  0.73173537  0.50481735  0.97856540    -0.77100
C97         C  0.75334888  0.50578270  0.97856673     0.83700
N98         N  0.76446260  0.49392013  0.99301178    -0.78800
C99         C  0.25205909  0.51914865  0.01104446     0.81200
N100        N  0.27353018  0.51759644  0.01220148    -0.77100
C101        C  0.28410534  0.50305870  0.00006546     0.83600
N102        N  0.27307826  0.49019338  0.98636660    -0.77100
C103        C  0.25152669  0.49177660  0.98480874     0.83700
N104        N  0.24125482  0.50619018  0.99736769    -0.78800
C105        C  0.98368509  0.49297843  0.23953580     0.81200
N106        N  0.98479743  0.49247472  0.26128568    -0.77100
C107        C  0.99934987  0.50431202  0.27210191     0.83600
N108        N  0.01282200  0.51702988  0.26085600    -0.77100
C109        C  0.01218541  0.51766264  0.23912547     0.83700
N110        N  0.99751110  0.50562560  0.22844054    -0.78800
C111        C  0.99394757  0.25816237  0.02147884     0.81200
N112        N  0.00972225  0.26818798  0.01056220    -0.77100
C113        C  0.02425185  0.25686057  0.99911558     0.83600
N114        N  0.02289221  0.23516857  0.99877572    -0.77100
C115        C  0.00714111  0.22482918  0.00951388     0.83700
N116        N  0.99276388  0.23640136  0.02082859    -0.78800
C117        C  0.98432170  0.50223353  0.74722302     0.81200
N118        N  0.98390733  0.50141418  0.72550883    -0.77100
C119        C  0.99724818  0.48842715  0.71434017     0.83600
N120        N  0.01139301  0.47601198  0.72535819    -0.77100
C121        C  0.01208968  0.47665128  0.74718965     0.83700
N122        N  0.99849317  0.48981327  0.75782401    -0.78800
Zn123      Zn  0.12644794  0.34017586  0.84444715     1.49700
Zn124      Zn  0.16242803  0.37785378  0.84231597     1.49400
Zn125      Zn  0.16421592  0.34155173  0.87952580     1.49100
Zn126      Zn  0.17413268  0.33035251  0.83156805     1.49500
O127        O  0.15657895  0.34766002  0.84963370    -1.83200
O128        O  0.11153628  0.36634966  0.83285023    -0.73800
O129        O  0.17170896  0.39324976  0.86893432    -0.73600
O130        O  0.13846214  0.33160953  0.89521971    -0.73100
O131        O  0.13593068  0.39208687  0.83110564    -0.73800
O132        O  0.11186507  0.33060736  0.87186080    -0.73400
O133        O  0.17483360  0.36849664  0.89428923    -0.74000
O134        O  0.19247104  0.31057955  0.84835383    -0.73400
O135        O  0.18600197  0.38194975  0.81996021    -0.74100
O136        O  0.18608027  0.31755275  0.88255813    -0.73500
O137        O  0.19366697  0.34792966  0.81376813    -0.74000
O138        O  0.15656629  0.31241669  0.81238676    -0.73900
O139        O  0.12292871  0.31610223  0.82241908    -0.73700
C140        C  0.11694758  0.38551876  0.82820376     0.78100
C141        C  0.17638167  0.38790289  0.88807778     0.78600
C142        C  0.11905728  0.32777267  0.89074909     0.77600
C143        C  0.19575912  0.30703863  0.86810441     0.77900
C144        C  0.19705939  0.36773658  0.81053366     0.79100
C145        C  0.13701396  0.30751998  0.81056883     0.78100
C146        C  0.98214496  0.75019208  0.98325832     0.81200
N147        N  0.99753904  0.73973752  0.99448896    -0.77100
C148        C  0.01213846  0.75059951  0.00625405     0.83600
N149        N  0.01115143  0.77228113  0.00709736    -0.77100
C150        C  0.99559934  0.78311891  0.99639865     0.83700
N151        N  0.98119381  0.77198050  0.98439715    -0.78800
Zn152      Zn  0.84128927  0.65620638  0.87035447     1.49700
Zn153      Zn  0.87915364  0.65440989  0.83466786     1.49400
Zn154      Zn  0.84194208  0.61858985  0.83516757     1.49100
Zn155      Zn  0.83137688  0.66567831  0.82168426     1.49500
O156        O  0.84864212  0.64863878  0.84064659    -1.83200
O157        O  0.86756259  0.66759191  0.88487920    -0.73800
O158        O  0.89385913  0.62734000  0.82467598    -0.73600
O159        O  0.83137824  0.60492304  0.86218669    -0.73100
O160        O  0.89380509  0.66587614  0.86118325    -0.73800
O161        O  0.83047281  0.63037815  0.88691047    -0.73400
O162        O  0.86810716  0.60296695  0.82486577    -0.74000
O163        O  0.81329488  0.64805325  0.80207618    -0.73400
O164        O  0.88335866  0.67657168  0.81100813    -0.74100
O165        O  0.81892702  0.61455998  0.81246149    -0.73500
O166        O  0.84962380  0.68304092  0.80298677    -0.74000
O167        O  0.81256029  0.68579820  0.83777451    -0.73900
O168        O  0.81855626  0.67943762  0.87214863    -0.73700
C169        C  0.88698835  0.67063168  0.87978135     0.78100
C170        C  0.88736402  0.60830124  0.82118141     0.78600
C171        C  0.82733708  0.61102999  0.88121505     0.77600
C172        C  0.80966849  0.62811166  0.80040328     0.77900
C173        C  0.86933328  0.68617421  0.79985033     0.79100
C174        C  0.80893487  0.68972147  0.85741705     0.78100
Zn175      Zn  0.85054342  0.35113323  0.18585910     1.49700
Zn176      Zn  0.81447533  0.35121387  0.15006576     1.49400
Zn177      Zn  0.86194434  0.36524934  0.13792947     1.49100
Zn178      Zn  0.85123773  0.31608009  0.14824410     1.49500
O179        O  0.84465643  0.34592756  0.15549763    -1.83200
O180        O  0.82367426  0.35966904  0.20135037    -0.73800
O181        O  0.81025094  0.37407024  0.12801795    -0.73600
O182        O  0.87946615  0.38500928  0.15666003    -0.73100
O183        O  0.79852638  0.36028593  0.17650408    -0.73800
O184        O  0.87194874  0.37466722  0.18985242    -0.73400
O185        O  0.84309561  0.38379975  0.11928280    -0.74000
O186        O  0.87238321  0.31461389  0.12409556    -0.73400
O187        O  0.80033328  0.32436916  0.13981142    -0.74100
O188        O  0.88178396  0.34853340  0.11847321    -0.73500
O189        O  0.82504497  0.29915735  0.13933115    -0.74000
O190        O  0.86355439  0.30104740  0.17406695    -0.73900
O191        O  0.86222910  0.32484389  0.20040431    -0.73700
C192        C  0.80433501  0.36262621  0.19586876     0.78100
C193        C  0.82298602  0.38560173  0.11718640     0.78600
C194        C  0.88183488  0.38678750  0.17685805     0.77600
C195        C  0.88351728  0.32860791  0.11435604     0.77900
C196        C  0.80581026  0.30498938  0.13673099     0.79100
C197        C  0.86650530  0.30613045  0.19362396     0.78100
Zn198      Zn  0.14901721  0.65255489  0.17891999     1.49700
Zn199      Zn  0.14936562  0.68950624  0.14373729     1.49400
Zn200      Zn  0.18429026  0.65298499  0.14307889     1.49100
Zn201      Zn  0.13574030  0.64201379  0.12974532     1.49500
O202        O  0.15438126  0.65914162  0.14879007    -1.83200
O203        O  0.13803261  0.67830550  0.19524394    -0.73800
O204        O  0.17585368  0.70394837  0.13282357    -0.73600
O205        O  0.20087688  0.64497745  0.16960460    -0.73100
O206        O  0.14083072  0.70413618  0.17098405    -0.73800
O207        O  0.17592127  0.64299502  0.19448248    -0.73400
O208        O  0.19969415  0.67803395  0.13052802    -0.74000
O209        O  0.15363750  0.62228153  0.11048267    -0.73400
O210        O  0.12623348  0.69454060  0.12194644    -0.74100
O211        O  0.18635607  0.62921467  0.12226044    -0.73500
O212        O  0.11771094  0.66182652  0.11110300    -0.74000
O213        O  0.11542986  0.62338615  0.14759073    -0.73900
O214        O  0.12674280  0.62982388  0.18072875    -0.73700
C215        C  0.13657496  0.69793379  0.18992479     0.78100
C216        C  0.19450456  0.69753072  0.12815018     0.78600
C217        C  0.19537757  0.64152786  0.18887674     0.77600
C218        C  0.17367881  0.61882014  0.11021613     0.77900
C219        C  0.11533730  0.68212572  0.11004340     0.79100
C220        C  0.11435107  0.62014422  0.16775820     0.78100
C221        C  0.49853382  0.24524127  0.02355700     0.81200
N222        N  0.48438420  0.23534406  0.01038447    -0.77100
C223        C  0.47020694  0.24682735  0.99842899     0.83600
N224        N  0.47036289  0.26859499  0.99979951    -0.77100
C225        C  0.48443524  0.27875842  0.01287191     0.83700
N226        N  0.49846942  0.26697894  0.02448047    -0.78800
C227        C  0.49090871  0.75224964  0.01985846     0.81200
N228        N  0.50442446  0.76340602  0.00697394    -0.77100
C229        C  0.51764445  0.75304864  0.99328778     0.83600
N230        N  0.51707535  0.73129711  0.99245178    -0.77100
C231        C  0.50367695  0.71988550  0.00510152     0.83700
N232        N  0.49049869  0.73049335  0.01868216    -0.78800
C233        C  0.48952694  0.98322014  0.25254152     0.81200
N234        N  0.49046116  0.98276692  0.27426113    -0.77100
C235        C  0.50405276  0.99596519  0.28495486     0.83600
N236        N  0.51662366  0.00976305  0.27375149    -0.77100
C237        C  0.51596156  0.01030407  0.25204177     0.83700
N238        N  0.50233300  0.99695969  0.24169187    -0.78800
C239        C  0.25507881  0.00531872  0.97851216     0.81200
N240        N  0.26514882  0.99246749  0.99289433    -0.77100
C241        C  0.25405384  0.98157256  0.00798574     0.83600
N242        N  0.23253676  0.98358400  0.00854670    -0.77100
C243        C  0.22223021  0.99664818  0.99455522     0.83700
N244        N  0.23355986  0.00749932  0.97951076    -0.78800
C245        C  0.75062142  0.99008019  0.98682811     0.81200
N246        N  0.77218859  0.98964679  0.98698735    -0.77100
C247        C  0.78342628  0.00346838  0.99938181     0.83600
N248        N  0.77294884  0.01749582  0.01225426    -0.77100
C249        C  0.75128229  0.01776525  0.01262532     0.83700
N250        N  0.74030266  0.00408889  0.99969015    -0.78800
Zn251      Zn  0.65247655  0.81339996  0.85580489     1.49700
Zn252      Zn  0.64097802  0.86236149  0.86831979     1.49400
Zn253      Zn  0.68852530  0.84946391  0.85424402     1.49100
Zn254      Zn  0.65141748  0.84918534  0.81963928     1.49500
O255        O  0.65814055  0.84367713  0.84958611    -1.83200
O256        O  0.63157958  0.81062755  0.87981700    -0.73800
O257        O  0.66045451  0.88141964  0.88621197    -0.73600
O258        O  0.70405701  0.82372149  0.86523252    -0.73100
O259        O  0.62231803  0.84395792  0.88818660    -0.73800
O260        O  0.67931684  0.79843273  0.86488508    -0.73400
O261        O  0.69285814  0.87314935  0.87502475    -0.74000
O262        O  0.67788164  0.85777580  0.80306404    -0.73400
O263        O  0.62235030  0.88274736  0.85066664    -0.74100
O264        O  0.70362519  0.85794568  0.82729371    -0.73500
O265        O  0.63017413  0.87322360  0.81732356    -0.74000
O266        O  0.63925888  0.82265985  0.80529257    -0.73900
O267        O  0.64077488  0.79722162  0.82997691    -0.73700
C268        C  0.62077472  0.82370497  0.89098277     0.78100
C269        C  0.68058413  0.88427676  0.88665908     0.78600
C270        C  0.69849892  0.80433992  0.86795116     0.77600
C271        C  0.69739521  0.86047312  0.80810485     0.77900
C272        C  0.62011187  0.88506213  0.83048026     0.79100
C273        C  0.63644757  0.80321525  0.81095369     0.78100
C274        C  0.52174593  0.99114469  0.75830796     0.81200
N275        N  0.50826261  0.00420991  0.76930151    -0.77100
C276        C  0.49338834  0.01599706  0.75874798     0.83600
N277        N  0.49205648  0.01456669  0.73709501    -0.77100
C278        C  0.50501714  0.00126688  0.72599488     0.83700
N279        N  0.51987458  0.98963431  0.73666672    -0.78800
Zn280      Zn  0.37440224  0.16169468  0.83908483     1.49700
Zn281      Zn  0.34067355  0.12269139  0.83680069     1.49400
Zn282      Zn  0.33583288  0.15821536  0.87342992     1.49100
Zn283      Zn  0.32646828  0.16951553  0.82484687     1.49500
O284        O  0.34455971  0.15297089  0.84374140    -1.83200
O285        O  0.39238318  0.13617297  0.83038876    -0.73800
O286        O  0.33206741  0.10646254  0.86308866    -0.73600
O287        O  0.36059858  0.17077135  0.88953989    -0.73100
O288        O  0.36833998  0.11026383  0.82678160    -0.73800
O289        O  0.38719250  0.17380467  0.86637098    -0.73400
O290        O  0.32753378  0.13062463  0.88863408    -0.74000
O291        O  0.30665754  0.18828981  0.84093297    -0.73400
O292        O  0.31740174  0.11742522  0.81439471    -0.74100
O293        O  0.31093689  0.17912657  0.87498844    -0.73500
O294        O  0.30736048  0.15085944  0.80823908    -0.74000
O295        O  0.34310078  0.18706488  0.80389412    -0.73900
O296        O  0.37655325  0.18373244  0.81493977    -0.73700
C297        C  0.38747872  0.11696099  0.82553226     0.78100
C298        C  0.32711659  0.11124608  0.88225090     0.78600
C299        C  0.37973313  0.17603037  0.88520004     0.77600
C300        C  0.30140028  0.18987288  0.86047976     0.77900
C301        C  0.30519165  0.13090397  0.80523268     0.79100
C302        C  0.36276311  0.19152614  0.80207764     0.78100
Zn303      Zn  0.34006215  0.87778336  0.16241525     1.49700
Zn304      Zn  0.34161631  0.84074778  0.12624724     1.49400
Zn305      Zn  0.37704598  0.84099445  0.16337156     1.49100
Zn306      Zn  0.32989795  0.82924261  0.17417908     1.49500
O307        O  0.34729095  0.84741770  0.15641457    -1.83200
O308        O  0.32849785  0.89232775  0.13589017    -0.73800
O309        O  0.36856623  0.83046314  0.11184533    -0.73600
O310        O  0.39086081  0.86803424  0.17328768    -0.73100
O311        O  0.33058522  0.86695491  0.11109707    -0.73800
O312        O  0.36636564  0.89364690  0.17267015    -0.73400
O313        O  0.39326054  0.83037834  0.13736267    -0.74000
O314        O  0.34653156  0.81197821  0.19559412    -0.73400
O315        O  0.31877078  0.81777141  0.12254101    -0.74100
O316        O  0.38014519  0.81900647  0.18750489    -0.73500
O317        O  0.31221357  0.80973169  0.15643713    -0.74000
O318        O  0.31011384  0.84653564  0.19130517    -0.73900
O319        O  0.31707741  0.88078502  0.18520269    -0.73700
C320        C  0.32559088  0.88590337  0.11675286     0.78100
C321        C  0.38763216  0.82700924  0.11803238     0.78600
C322        C  0.38535581  0.88742547  0.17631953     0.77600
C323        C  0.36631481  0.80941763  0.19895929     0.77900
C324        C  0.30875030  0.80693704  0.13656616     0.79100
C325        C  0.30668114  0.86622379  0.19492105     0.78100
Zn326      Zn  0.66671673  0.16939253  0.17571768     1.49700
Zn327      Zn  0.65788815  0.12232303  0.15880648     1.49400
Zn328      Zn  0.62074582  0.15793195  0.15967091     1.49100
Zn329      Zn  0.65827628  0.16216833  0.12508626     1.49500
O330        O  0.65093326  0.15282724  0.15456570    -1.83200
O331        O  0.68480769  0.15097760  0.19424399    -0.73800
O332        O  0.63164428  0.10533952  0.16784972    -0.73600
O333        O  0.61541538  0.17985546  0.18331243    -0.73100
O334        O  0.68065942  0.11786073  0.18206861    -0.73800
O335        O  0.64798474  0.18551897  0.19589336    -0.73400
O336        O  0.60678955  0.13053296  0.16884578    -0.74000
O337        O  0.63212421  0.17360465  0.10909226    -0.73400
O338        O  0.66903369  0.11032082  0.13110068    -0.74100
O339        O  0.60634892  0.16845505  0.13281918    -0.73500
O340        O  0.67017356  0.13716371  0.10777358    -0.74000
O341        O  0.68064873  0.18581038  0.12621770    -0.73900
O342        O  0.68561297  0.19062991  0.16112127    -0.73700
C343        C  0.68908910  0.13114160  0.19509889     0.78100
C344        C  0.61256065  0.11116187  0.17156617     0.78600
C345        C  0.62804800  0.18864379  0.19666432     0.77600
C346        C  0.61252496  0.17448411  0.11434545     0.77900
C347        C  0.67332162  0.11752475  0.11247253     0.79100
C348        C  0.68968997  0.19550085  0.14177952     0.78100
C349        C  0.49609888  0.51905096  0.25566975     0.81200
N350        N  0.49675077  0.52000327  0.23398201    -0.77100
C351        C  0.50969664  0.50690638  0.22261546     0.83600
N352        N  0.52190777  0.49238283  0.23316574    -0.77100
C353        C  0.52139101  0.49097952  0.25492098     0.83700
N354        N  0.50839850  0.50436065  0.26601216    -0.78800
C355        C  0.74822463  0.48816411  0.48218608     0.81200
N356        N  0.76975979  0.48858182  0.48209666    -0.77100
C357        C  0.78101910  0.50132008  0.49568389     0.83600
N358        N  0.77029614  0.51400759  0.50976042    -0.77100
C359        C  0.74855960  0.51386426  0.51026391     0.83700
N360        N  0.73776421  0.50082953  0.49641526    -0.78800
Zn361      Zn  0.62073712  0.33361894  0.34108230     1.49700
Zn362      Zn  0.65546318  0.33452553  0.37984707     1.49400
Zn363      Zn  0.66821883  0.31924684  0.33260853     1.49100
Zn364      Zn  0.65948849  0.36803450  0.34095011     1.49500
O365        O  0.65079939  0.33902515  0.34883239    -1.83200
O366        O  0.60385766  0.32392166  0.36693303    -0.73800
O367        O  0.67694394  0.31056172  0.38546065    -0.73600
O368        O  0.65154086  0.30233863  0.31125045    -0.73100
O369        O  0.62725012  0.32630075  0.39355916    -0.73800
O370        O  0.61791981  0.31128646  0.31718161    -0.73400
O371        O  0.68296332  0.29948568  0.35221268    -0.74000
O372        O  0.68290133  0.36795996  0.31817057    -0.73400
O373        O  0.66744151  0.36128220  0.39432041    -0.74100
O374        O  0.69072834  0.33357633  0.31544543    -0.73500
O375        O  0.67112032  0.38372147  0.36704799    -0.74000
O376        O  0.63388926  0.38417184  0.32941372    -0.73900
O377        O  0.60704293  0.36090369  0.33041140    -0.73700
C378        C  0.60843735  0.32232029  0.38675908     0.78100
C379        C  0.68593530  0.29793282  0.37227608     0.78600
C380        C  0.63188277  0.30078511  0.30676740     0.77600
C381        C  0.69418120  0.35291519  0.31031677     0.77900
C382        C  0.67329655  0.37940323  0.38692943     0.79100
C383        C  0.61431813  0.37951262  0.32629102     0.78100
C384        C  0.50609890  0.25111806  0.48873648     0.81200
N385        N  0.49260931  0.26209552  0.50159229    -0.77100
C386        C  0.47922978  0.25183559  0.51527792     0.83600
N387        N  0.47933693  0.22997388  0.51595151    -0.77100
C388        C  0.49271475  0.21866247  0.50299603     0.83700
N389        N  0.50593143  0.22943315  0.48950326    -0.78800
C390        C  0.48305658  0.74488095  0.49030425     0.81200
N391        N  0.48236209  0.76659540  0.49054851    -0.77100
C392        C  0.49447047  0.77791937  0.50454895     0.83600
N393        N  0.50764139  0.76734783  0.51810778    -0.77100
C394        C  0.50876487  0.74558724  0.51795273     0.83700
N395        N  0.49625869  0.73444396  0.50408028    -0.78800
Zn396      Zn  0.36371694  0.63398175  0.36271522     1.49700
Zn397      Zn  0.35508745  0.68243667  0.34964043     1.49400
Zn398      Zn  0.35195727  0.64643039  0.31374806     1.49100
Zn399      Zn  0.31653768  0.64998219  0.35063962     1.49500
O400        O  0.34694301  0.65301558  0.34410782    -1.83200
O401        O  0.38268570  0.65060663  0.38362919    -0.73800
O402        O  0.36798168  0.69627226  0.32368951    -0.73600
O403        O  0.37306975  0.62194184  0.31094303    -0.73100
O404        O  0.37534804  0.68413061  0.37442577    -0.73800
O405        O  0.38230015  0.61477481  0.34462538    -0.73400
O406        O  0.36375518  0.67244659  0.29776750    -0.74000
O407        O  0.29984773  0.64233113  0.32438004    -0.73400
O408        O  0.32950464  0.70042704  0.35646512    -0.74100
O409        O  0.32423094  0.63859395  0.29901694    -0.73500
O410        O  0.30318886  0.67718793  0.36132038    -0.74000
O411        O  0.31154751  0.62721787  0.37231546    -0.73900
O412        O  0.34391579  0.61556131  0.38058800    -0.73700
C413        C  0.38497175  0.67071536  0.38638471     0.78100
C414        C  0.36940606  0.69104917  0.30404006     0.78600
C415        C  0.38411959  0.61147781  0.32455487     0.77600
C416        C  0.30485976  0.63835850  0.30509105     0.77900
C417        C  0.31021182  0.69627234  0.36101515     0.79100
C418        C  0.32374423  0.61489616  0.38287160     0.78100
C419        C  0.25163803  0.49516346  0.52063584     0.81200
N420        N  0.23008049  0.49717169  0.52088321    -0.77100
C421        C  0.21974762  0.51074998  0.50742355     0.83600
N422        N  0.23141238  0.52255900  0.49351965    -0.77100
C423        C  0.25299741  0.52087353  0.49286153     0.83700
N424        N  0.26306954  0.50712869  0.50646898    -0.78800
C425        C  0.51986963  0.51236215  0.74857973     0.81200
N426        N  0.50673590  0.49862130  0.73791177    -0.77100
C427        C  0.49318530  0.48558749  0.74868798     0.83600
N428        N  0.49290748  0.48623354  0.77039133    -0.77100
C429        C  0.50582431  0.49983954  0.78130012     0.83700
N430        N  0.51921724  0.51295937  0.77035268    -0.78800
Zn431      Zn  0.32814446  0.33130270  0.67564187     1.49700
Zn432      Zn  0.37599381  0.34151296  0.66340122     1.49400
Zn433      Zn  0.33818368  0.34436030  0.62798581     1.49100
Zn434      Zn  0.34148419  0.37943950  0.66534028     1.49500
O435        O  0.34612628  0.34924506  0.65788965    -1.83200
O436        O  0.34511067  0.31424716  0.69657565    -0.73800
O437        O  0.39026706  0.33272604  0.63574234    -0.73600
O438        O  0.31607774  0.32014926  0.62476902    -0.73100
O439        O  0.37842747  0.31744924  0.68527663    -0.73800
O440        O  0.31100315  0.31034867  0.65849756    -0.73400
O441        O  0.36460173  0.33596798  0.61140913    -0.74000
O442        O  0.32958074  0.39645489  0.64041935    -0.73400
O443        O  0.39231543  0.36670938  0.67568309    -0.74100
O444        O  0.32572918  0.37162298  0.61529082    -0.73500
O445        O  0.36860859  0.39303733  0.67544023    -0.74000
O446        O  0.32025760  0.38224283  0.68937029    -0.73900
O447        O  0.30815313  0.34889955  0.69271307    -0.73700
C448        C  0.36468077  0.30938184  0.69792933     0.78100
C449        C  0.38384473  0.33158113  0.61639056     0.78600
C450        C  0.30733109  0.30795267  0.63862697     0.77600
C451        C  0.32345719  0.39088403  0.62178222     0.77900
C452        C  0.38727419  0.38611939  0.67933183     0.79100
C453        C  0.30765787  0.36861026  0.69765178     0.78100
Zn454      Zn  0.66340856  0.62485950  0.65832218     1.49700
Zn455      Zn  0.67420255  0.67320091  0.67103907     1.49400
Zn456      Zn  0.66318649  0.66170123  0.62276679     1.49100
Zn457      Zn  0.62677444  0.66129701  0.66010811     1.49500
O458        O  0.65672046  0.65519922  0.65297686    -1.83200
O459        O  0.68548202  0.62102174  0.68179931    -0.73800
O460        O  0.69319687  0.69286722  0.65391956    -0.73600
O461        O  0.67275533  0.63546716  0.60623701    -0.73100
O462        O  0.69174951  0.65484751  0.69059522    -0.73800
O463        O  0.67371886  0.61040903  0.63133499    -0.73400
O464        O  0.68632488  0.68395509  0.62014809    -0.74000
O465        O  0.61246373  0.67220159  0.63333575    -0.73400
O466        O  0.65657234  0.69219107  0.68950836    -0.74100
O467        O  0.63737811  0.67368743  0.60815269    -0.73500
O468        O  0.62276096  0.68457191  0.68340943    -0.74000
O469        O  0.61222923  0.63395489  0.67005299    -0.73900
O470        O  0.63736994  0.60909183  0.66840022    -0.73700
C471        C  0.69478896  0.63486867  0.69349885     0.78100
C472        C  0.69630016  0.69513714  0.63392303     0.78600
C473        C  0.67643266  0.61624084  0.61195431     0.77600
C474        C  0.61835436  0.67679570  0.61432623     0.77900
C475        C  0.63695314  0.69550400  0.69316327     0.79100
C476        C  0.61835955  0.61462119  0.67262256     0.78100
C477        C  0.24490399  0.98206895  0.49540381     0.81200
N478        N  0.26653932  0.98100266  0.49565731    -0.77100
C479        C  0.27809709  0.99522216  0.50743758     0.83600
N480        N  0.26777869  0.01036776  0.51907966    -0.77100
C481        C  0.24622033  0.01156397  0.51913686     0.83700
N482        N  0.23492045  0.99744848  0.50700794    -0.78800
C483        C  0.75260226  0.98625150  0.51555045     0.81200
N484        N  0.73090526  0.98599308  0.51630944    -0.77100
C485        C  0.71920543  0.99895829  0.50335215     0.83600
N486        N  0.72941481  0.01216279  0.48947638    -0.77100
C487        C  0.75095370  0.01256305  0.48827256     0.83700
N488        N  0.76244663  0.99956755  0.50145576    -0.78800
C489        C  0.01840484  0.24597395  0.50596926     0.81200
N490        N  0.01990038  0.26753680  0.50287873    -0.77100
C491        C  0.00788123  0.27757866  0.48789821     0.83600
N492        N  0.99419765  0.26572284  0.47603075    -0.77100
C493        C  0.99232339  0.24424528  0.47875202     0.83700
N494        N  0.00449279  0.23432054  0.49384583    -0.78800
C495        C  0.98675885  0.01707665  0.25323859     0.81200
N496        N  0.00009854  0.00381320  0.26428710    -0.77100
C497        C  0.01320811  0.99013431  0.25355185     0.83600
N498        N  0.01272109  0.98967699  0.23178441    -0.77100
C499        C  0.99983592  0.00304037  0.22059867     0.83700
N500        N  0.98694128  0.01653283  0.23145490    -0.78800
C501        C  0.98734850  0.75217892  0.51036279     0.81200
N502        N  0.98681265  0.73047670  0.50896278    -0.77100
C503        C  0.99893893  0.71976727  0.49447098     0.83600
N504        N  0.01181986  0.73117946  0.48128840    -0.77100
C505        C  0.01246385  0.75292111  0.48228723     0.83700
N506        N  0.00022707  0.76329766  0.49682829    -0.78800
Zn507      Zn  0.14720176  0.85281432  0.31502454     1.49700
Zn508      Zn  0.15132339  0.81829542  0.35194145     1.49400
Zn509      Zn  0.18393497  0.85684770  0.34919164     1.49100
Zn510      Zn  0.13579869  0.86604882  0.36368709     1.49500
O511        O  0.15438578  0.84857204  0.34506867    -1.83200
O512        O  0.13760477  0.82544656  0.30129531    -0.73800
O513        O  0.17935756  0.80546369  0.36031710    -0.73600
O514        O  0.19624665  0.86934155  0.32242709    -0.73100
O515        O  0.14190834  0.80078829  0.32643233    -0.73800
O516        O  0.17211153  0.86324129  0.29732026    -0.73400
O517        O  0.20281903  0.83152715  0.35577767    -0.74000
O518        O  0.15336387  0.88483365  0.38358491    -0.73400
O519        O  0.12953816  0.81428121  0.37502933    -0.74100
O520        O  0.18637261  0.87783047  0.37325776    -0.73500
O521        O  0.11772118  0.84699230  0.38266182    -0.74000
O522        O  0.11608074  0.88491055  0.34568809    -0.73900
O523        O  0.12422392  0.87455545  0.31266295    -0.73700
C524        C  0.13711246  0.80598220  0.30733651     0.78100
C525        C  0.19855405  0.81203515  0.35984724     0.78600
C526        C  0.19058462  0.86953084  0.30284537     0.77600
C527        C  0.17338877  0.88752214  0.38552332     0.77900
C528        C  0.11726821  0.82676333  0.38536516     0.79100
C529        C  0.11351542  0.88616502  0.32544322     0.78100
Zn530      Zn  0.82258858  0.17225947  0.32848269     1.49700
Zn531      Zn  0.87069201  0.16184221  0.33920592     1.49400
Zn532      Zn  0.83542254  0.16012072  0.37640780     1.49100
Zn533      Zn  0.83530696  0.12429812  0.33907895     1.49500
O534        O  0.84107625  0.15446297  0.34584020    -1.83200
O535        O  0.83888587  0.19324415  0.31067681    -0.73800
O536        O  0.88566171  0.17209801  0.36574974    -0.73600
O537        O  0.81230426  0.18203641  0.38059858    -0.73100
O538        O  0.87275181  0.18554204  0.31706279    -0.73800
O539        O  0.80378863  0.18977776  0.34693868    -0.73400
O540        O  0.86151630  0.17123343  0.39158016    -0.74000
O541        O  0.82545861  0.10884384  0.36584866    -0.73400
O542        O  0.88658190  0.13638927  0.32748987    -0.74100
O543        O  0.82564589  0.13354816  0.39136318    -0.73500
O544        O  0.86228669  0.11050671  0.32745374    -0.74000
O545        O  0.81194547  0.12076096  0.31628911    -0.73900
O546        O  0.80461633  0.15464573  0.30844602    -0.73700
C547        C  0.85857662  0.19656197  0.30750684     0.78100
C548        C  0.88030239  0.17526078  0.38515504     0.78600
C549        C  0.80141928  0.19245342  0.36695719     0.77600
C550        C  0.82213871  0.11446353  0.38520869     0.77900
C551        C  0.88113694  0.11714371  0.32351431     0.79100
C552        C  0.80181797  0.13468104  0.30534336     0.78100
C553        C  0.00703982  0.01911860  0.74389071     0.81200
N554        N  0.00554179  0.02019671  0.76558759    -0.77100
C555        C  0.99204783  0.00740046  0.77672851     0.83600
N556        N  0.97987649  0.99323568  0.76570293    -0.77100
C557        C  0.98095306  0.99188403  0.74395132     0.83700
N558        N  0.99462207  0.00486500  0.73306619    -0.78800
Zn559      Zn  0.84200578  0.83716972  0.62306574     1.49700
Zn560      Zn  0.83065542  0.82195212  0.67021536     1.49400
Zn561      Zn  0.87791705  0.83581584  0.65966544     1.49100
Zn562      Zn  0.83968121  0.87095707  0.66169755     1.49500
O563        O  0.84764810  0.84170171  0.65348871    -1.83200
O564        O  0.82075438  0.81274430  0.61845861    -0.73800
O565        O  0.84861145  0.80539862  0.69049866    -0.73600
O566        O  0.89427482  0.82822764  0.63316752    -0.73100
O567        O  0.81614299  0.80072163  0.65160147    -0.73800
O568        O  0.86934369  0.82899120  0.60797609    -0.73400
O569        O  0.88203140  0.81151346  0.68071795    -0.74000
O570        O  0.86552326  0.88571822  0.67425735    -0.73400
O571        O  0.80803715  0.83665676  0.68733164    -0.74100
O572        O  0.89156681  0.86173076  0.67256252    -0.73500
O573        O  0.81568516  0.87109532  0.68364548    -0.74000
O574        O  0.82903924  0.88806673  0.63599677    -0.73900
O575        O  0.83035619  0.86433718  0.60957313    -0.73700
C576        C  0.81280239  0.79929809  0.63160608     0.78100
C577        C  0.86844383  0.80193744  0.69235959     0.78600
C578        C  0.88859790  0.82588727  0.61376208     0.77600
C579        C  0.88484868  0.88027202  0.67751907     0.77900
C580        C  0.80431844  0.85617086  0.69166789     0.79100
C581        C  0.82600951  0.88308668  0.61642212     0.78100
Zn582      Zn  0.16170820  0.16454118  0.62603450     1.49700
Zn583      Zn  0.17255553  0.17351434  0.67483371     1.49400
Zn584      Zn  0.12417026  0.16617781  0.66135343     1.49100
Zn585      Zn  0.15781514  0.12728727  0.66175388     1.49500
O586        O  0.15391366  0.15777172  0.65581465    -1.83200
O587        O  0.18336060  0.18894509  0.62478697    -0.73800
O588        O  0.15536479  0.18912467  0.69629243    -0.73600
O589        O  0.11078398  0.17730852  0.63422672    -0.73100
O590        O  0.18942066  0.19595453  0.65909006    -0.73800
O591        O  0.13590351  0.17453085  0.60945545    -0.73400
O592        O  0.12187466  0.18860281  0.68497137    -0.74000
O593        O  0.13002764  0.11423753  0.67099154    -0.73400
O594        O  0.19246284  0.15417817  0.69120850    -0.74100
O595        O  0.10670737  0.14083805  0.67137307    -0.73500
O596        O  0.17950006  0.12152585  0.68567875    -0.74000
O597        O  0.16834177  0.11249505  0.63497606    -0.73900
O598        O  0.17325038  0.13823467  0.61091065    -0.73700
C599        C  0.19230374  0.20012450  0.63936295     0.78100
C600        C  0.13604849  0.19480929  0.69822266     0.78600
C601        C  0.11699211  0.17935937  0.61490621     0.77600
C602        C  0.11132037  0.12124433  0.67455792     0.77900
C603        C  0.19261211  0.13412242  0.69489076     0.79100
C604        C  0.17427196  0.11857896  0.61639546     0.78100
C605        C  0.06020244  0.09788440  0.69828663    -0.13400
C606        C  0.06696944  0.07722376  0.70371129     0.17000
C607        C  0.08779080  0.07084822  0.69858758     0.03300
C608        C  0.10157178  0.08523392  0.68854048    -0.11900
C609        C  0.09514756  0.10621399  0.68343929    -0.03000
C610        C  0.07396636  0.11238821  0.68820157     0.02500
C611        C  0.05184890  0.06229937  0.71403060     0.09400
N612        N  0.09549282  0.05010145  0.70430725     0.65700
H613        H  0.11766865  0.07995615  0.68522270     0.18600
N614        N  0.06605128  0.13318573  0.68297021     0.76200
H615        H  0.04401419  0.10276307  0.70182215     0.10200
C616        C  0.04373346  0.06633664  0.73457293     0.03900
C617        C  0.02903264  0.05221400  0.74362786    -0.04900
C618        C  0.02216275  0.03372305  0.73271007    -0.23300
C619        C  0.03036553  0.02978553  0.71195563     0.13100
C620        C  0.04498796  0.04412174  0.70288046    -0.12400
N621        N  0.05088497  0.08429334  0.74679776     0.64800
H622        H  0.02308101  0.05580518  0.75951190     0.12600
N623        N  0.02463978  0.01119985  0.69995312     0.61400
H624        H  0.05112174  0.04098306  0.68695927     0.08800
O625        O  0.06441557  0.14706204  0.69754683    -0.40100
O626        O  0.05607162  0.13583508  0.66561554    -0.39200
O627        O  0.09791605  0.03614700  0.68992367    -0.39200
O628        O  0.10437837  0.04749745  0.72225568    -0.36900
O629        O  0.01456284  0.01363918  0.68263443    -0.37800
O630        O  0.03506258  0.99417709  0.70280797    -0.34000
O631        O  0.03890093  0.10035111  0.74882678    -0.35400
O632        O  0.06653694  0.08208387  0.75929391    -0.39700
C633        C  0.94762228  0.96148017  0.70271626    -0.13400
C634        C  0.94178885  0.94333758  0.71455355     0.17000
C635        C  0.95025596  0.94064581  0.73532934     0.03300
C636        C  0.96318670  0.95653868  0.74415551    -0.11900
C637        C  0.96810869  0.97531501  0.73282597    -0.03000
C638        C  0.96047893  0.97751652  0.71161018     0.02500
C639        C  0.92717630  0.92734649  0.70487192     0.09400
N640        N  0.94558765  0.92213039  0.74794923     0.65700
H641        H  0.96938235  0.95409984  0.76020372     0.18600
N642        N  0.96486800  0.99606991  0.69900181     0.76200
H643        H  0.94199008  0.96334934  0.68638290     0.10200
C644        C  0.90733026  0.93332236  0.69605154     0.03900
C645        C  0.89396240  0.91774039  0.68724820    -0.04900
C646        C  0.89980570  0.89605603  0.68699185    -0.23300
C647        C  0.91983575  0.89014445  0.69559084     0.13100
C648        C  0.93331251  0.90581097  0.70410514    -0.12400
N649        N  0.90025933  0.95506636  0.69622533     0.64800
H650        H  0.87880487  0.92276658  0.68058117     0.12600
N651        N  0.92659302  0.86832077  0.69645632     0.61400
H652        H  0.94879602  0.90103539  0.71013842     0.08800
O653        O  0.95278127  0.01209163  0.70067730    -0.40100
O654        O  0.97570998  0.99390763  0.68217690    -0.39200
O655        O  0.95961255  0.90782159  0.74999964    -0.39200
O656        O  0.93058553  0.92294273  0.76130355    -0.36900
O657        O  0.93936184  0.86145199  0.68250742    -0.37800
O658        O  0.92414945  0.85788550  0.71358724    -0.34000
O659        O  0.90065264  0.96572469  0.67905226    -0.35400
O660        O  0.88882861  0.96148652  0.71149425    -0.39700
C661        C  0.03702718  0.79498149  0.44559475    -0.13400
C662        C  0.05688456  0.78570620  0.44150397     0.17000
C663        C  0.06231471  0.76628172  0.45156766     0.03300
C664        C  0.04746527  0.75588438  0.46454598    -0.11900
C665        C  0.02740580  0.76486779  0.46843976    -0.03000
C666        C  0.02235380  0.78490486  0.45916283     0.02500
C667        C  0.07184083  0.79657259  0.42686725     0.09400
N668        N  0.08325454  0.75758614  0.44982612     0.65700
H669        H  0.05192262  0.74090985  0.47216052     0.18600
N670        N  0.00226679  0.79494067  0.46277833     0.76200
H671        H  0.03286573  0.81010655  0.43810976     0.10200
C672        C  0.07622726  0.78819677  0.40642754     0.03900
C673        C  0.09122517  0.79827713  0.39338518    -0.04900
C674        C  0.10153652  0.81709386  0.39998807    -0.23300
C675        C  0.09646632  0.82601210  0.42010262     0.13100
C676        C  0.08182297  0.81556870  0.43342947    -0.12400
N677        N  0.06477862  0.77017498  0.39822344     0.64800
H678        H  0.09446152  0.79159486  0.37768415     0.12600
N679        N  0.10663042  0.84507596  0.42759820     0.61400
H680        H  0.07835976  0.82220538  0.44909276     0.08800
O681        O  0.98766925  0.79284722  0.44902694    -0.40100
O682        O  0.00102220  0.80982407  0.47637134    -0.39200
O683        O  0.09727106  0.76331374  0.46315587    -0.39200
O684        O  0.08606273  0.74066853  0.43918670    -0.36900
O685        O  0.09703513  0.86274072  0.42598566    -0.37800
O686        O  0.12237817  0.84357088  0.44007953    -0.34000
O687        O  0.04801215  0.77337049  0.38753568    -0.35400
O688        O  0.07407980  0.75236317  0.39664371    -0.39700
C689        C  0.94033075  0.80965037  0.58607094    -0.13400
C690        C  0.93233574  0.79982339  0.56757273     0.17000
C691        C  0.91024246  0.79982657  0.56380295     0.03300
C692        C  0.89652181  0.80912811  0.57866581    -0.11900
C693        C  0.90427469  0.81832992  0.59766512    -0.03000
C694        C  0.92659073  0.81881506  0.60115684     0.02500
C695        C  0.94693150  0.78789357  0.55338660     0.09400
N696        N  0.90144483  0.79021164  0.54501629     0.65700
H697        H  0.87953859  0.80848185  0.57552698     0.18600
N698        N  0.93563446  0.82837564  0.61987329     0.76200
H699        H  0.95734019  0.80960697  0.58915842     0.10200
C700        C  0.96246387  0.79828576  0.54096077     0.03900
C701        C  0.97553090  0.78632332  0.52738891    -0.04900
C702        C  0.97383560  0.76385897  0.52614638    -0.23300
C703        C  0.95894518  0.75342568  0.53970137     0.13100
C704        C  0.94555779  0.76553826  0.55283139    -0.12400
N705        N  0.96492737  0.82101361  0.54162468     0.64800
H706        H  0.98703302  0.79486816  0.51766494     0.12600
N707        N  0.95730697  0.73062937  0.54079325     0.61400
H708        H  0.93409800  0.75735436  0.56294657     0.08800
O709        O  0.94271707  0.84727187  0.61884365    -0.40100
O710        O  0.94116861  0.81656684  0.63531182    -0.39200
O711        O  0.89311353  0.77185130  0.54628678    -0.39200
O712        O  0.89742560  0.80182629  0.52897832    -0.36900
O713        O  0.96764692  0.72072923  0.55503282    -0.37800
O714        O  0.94184311  0.72139974  0.53173212    -0.34000
O715        O  0.97992330  0.82899241  0.55249209    -0.35400
O716        O  0.95581770  0.83234274  0.52761841    -0.39700
C717        C  0.93252764  0.09221970  0.30224766    -0.13400
C718        C  0.92469732  0.07365772  0.29244592     0.17000
C719        C  0.90272458  0.06930653  0.29311977     0.03300
C720        C  0.88900888  0.08349129  0.30357871    -0.11900
C721        C  0.89668294  0.10226891  0.31339070    -0.03000
C722        C  0.91884975  0.10657413  0.31255579     0.02500
C723        C  0.93993748  0.05872955  0.28238164     0.09400
N724        N  0.89411825  0.05033467  0.28367651     0.65700
H725        H  0.87213369  0.07978825  0.30381252     0.18600
N726        N  0.92790609  0.12519397  0.32228527     0.76200
H727        H  0.94947822  0.09559281  0.30189824     0.10200
C728        C  0.94239104  0.05769718  0.26006461     0.03900
C729        C  0.95757457  0.04401432  0.25125212    -0.04900
C730        C  0.97107415  0.03139703  0.26416001    -0.23300
C731        C  0.96879380  0.03290682  0.28669530     0.13100
C732        C  0.95323615  0.04637803  0.29547011    -0.12400
N733        N  0.93046939  0.07130432  0.24611062     0.64800
H734        H  0.95889229  0.04366069  0.23395631     0.12600
N735        N  0.98259304  0.02182194  0.30105827     0.61400
H736        H  0.95176251  0.04749266  0.31275059     0.08800
O737        O  0.93275866  0.14100003  0.31066571    -0.40100
O738        O  0.93586863  0.12373510  0.34079314    -0.39200
O739        O  0.89123166  0.03402377  0.29525014    -0.39200
O740        O  0.88456527  0.05163502  0.26593714    -0.36900
O741        O  0.99707719  0.03230883  0.31037994    -0.37800
O742        O  0.97647662  0.00430727  0.30906915    -0.34000
O743        O  0.93852668  0.08891301  0.24036262    -0.35400
O744        O  0.91556718  0.06335562  0.23510458    -0.39700
C745        C  0.06599861  0.92310077  0.31604747    -0.13400
C746        C  0.06963299  0.92948597  0.29481580     0.17000
C747        C  0.08813855  0.92240443  0.28431393     0.03300
C748        C  0.10201818  0.90842209  0.29475669    -0.11900
C749        C  0.09829514  0.90160100  0.31587048    -0.03000
C750        C  0.08019798  0.90942252  0.32671312     0.02500
C751        C  0.05459274  0.94452167  0.28444520     0.09400
N752        N  0.09383791  0.93023977  0.26359518     0.65700
H753        H  0.11617993  0.90324767  0.28631942     0.18600
N754        N  0.07569750  0.90335392  0.34828312     0.76200
H755        H  0.05199837  0.92880642  0.32440789     0.10200
C756        C  0.04246915  0.93875742  0.26631597     0.03900
C757        C  0.02915722  0.95391722  0.25663042    -0.04900
C758        C  0.02709054  0.97469325  0.26501864    -0.23300
C759        C  0.03864656  0.98009801  0.28367549     0.13100
C760        C  0.05230530  0.96506885  0.29307413    -0.12400
N761        N  0.04251092  0.91731783  0.25830153     0.64800
H762        H  0.01996133  0.94921960  0.24266129     0.12600
N763        N  0.03738777  0.00091368  0.29295716     0.61400
H764        H  0.06148274  0.96960170  0.30711061     0.08800
O765        O  0.06256372  0.88845741  0.35179315    -0.40100
O766        O  0.08073559  0.91587156  0.36332389    -0.39200
O767        O  0.10425311  0.94748916  0.26228233    -0.39200
O768        O  0.09417647  0.91738772  0.24802345    -0.36900
O769        O  0.02939072  0.00276590  0.31136066    -0.37800
O770        O  0.04956724  0.01546460  0.28611925    -0.34000
O771        O  0.03018651  0.90370798  0.26664762    -0.35400
O772        O  0.05003409  0.91367155  0.23995908    -0.39700
C773        C  0.09227446  0.19852139  0.56239743    -0.13400
C774        C  0.07382613  0.20852139  0.56984282     0.17000
C775        C  0.06900031  0.20783371  0.59179967     0.03300
C776        C  0.08307888  0.19793899  0.60603602    -0.11900
C777        C  0.10195508  0.18828378  0.59880376    -0.03000
C778        C  0.10620130  0.18819426  0.57652833     0.02500
C779        C  0.05931486  0.21856937  0.55421759     0.09400
N780        N  0.05005301  0.21742502  0.59993424     0.65700
H781        H  0.07925451  0.19813857  0.62297202     0.18600
N782        N  0.12400478  0.17702323  0.56781148     0.76200
H783        H  0.09568107  0.19838632  0.54535695     0.10200
C784        C  0.06489475  0.23758744  0.54355433     0.03900
C785        C  0.05129755  0.24606343  0.52801383    -0.04900
C786        C  0.03213004  0.23576830  0.52247508    -0.23300
C787        C  0.02677247  0.21641972  0.53305247     0.13100
C788        C  0.04032038  0.20815832  0.54886213    -0.12400
N789        N  0.08432556  0.24850143  0.54834205     0.64800
H790        H  0.05601744  0.26074984  0.52002073     0.12600
N791        N  0.00779090  0.20483769  0.52811002     0.61400
H792        H  0.03612418  0.19328239  0.55682681     0.08800
O793        O  0.13995999  0.18752251  0.56144649    -0.40100
O794        O  0.12160469  0.15791553  0.56167552    -0.39200
O795        O  0.03438723  0.20565986  0.60461411    -0.39200
O796        O  0.05077822  0.23633259  0.60701305    -0.36900
O797        O  0.99086881  0.20941150  0.53791147    -0.37800
O798        O  0.00943638  0.18669028  0.51941949    -0.34000
O799        O  0.10004366  0.24627955  0.53601483    -0.35400
O800        O  0.08414583  0.26386120  0.56145088    -0.39700
C801        C  0.96155251  0.20150640  0.44758159    -0.13400
C802        C  0.94425054  0.21349852  0.44006872     0.17000
C803        C  0.94239145  0.23510678  0.44623090     0.03300
C804        C  0.95811102  0.24443453  0.45900735    -0.11900
C805        C  0.97588271  0.23269850  0.46609157    -0.03000
C806        C  0.97732934  0.21082164  0.46046972     0.02500
C807        C  0.92806794  0.20308598  0.42627717     0.09400
N808        N  0.92488128  0.24797493  0.43930990     0.65700
H809        H  0.95630859  0.26115077  0.46337729     0.18600
N810        N  0.99476766  0.19782916  0.46717522     0.76200
H811        H  0.96284974  0.18469983  0.44338381     0.10200
C812        C  0.93363806  0.19333255  0.40674330     0.03900
C813        C  0.91789816  0.18392957  0.39401638    -0.04900
C814        C  0.89641079  0.18405643  0.40021143    -0.23300
C815        C  0.89095481  0.19334840  0.42012774     0.13100
C816        C  0.90679411  0.20260677  0.43292415    -0.12400
N817        N  0.95507441  0.19355517  0.39915592     0.64800
H818        H  0.92259733  0.17678027  0.37893126     0.12600
N819        N  0.86942146  0.19425134  0.42735504     0.61400
H820        H  0.90239579  0.20958315  0.44818053     0.08800
O821        O  0.99117278  0.18250503  0.47983528    -0.40100
O822        O  0.01131685  0.19735729  0.45579090    -0.39200
O823        O  0.91014205  0.25216261  0.45233208    -0.39200
O824        O  0.92674922  0.25916192  0.42258988    -0.36900
O825        O  0.86295174  0.18065905  0.44082051    -0.37800
O826        O  0.85878429  0.21110982  0.42432060    -0.34000
O827        O  0.96595918  0.17661526  0.40011826    -0.35400
O828        O  0.96105415  0.20854745  0.38701207    -0.39700
C829        C  0.79767719  0.95923819  0.54716804    -0.13400
C830        C  0.78720452  0.94104770  0.55501367     0.17000
C831        C  0.76567930  0.93777330  0.54969119     0.03300
C832        C  0.75495019  0.95264094  0.53688353    -0.11900
C833        C  0.76514501  0.97112359  0.52912946    -0.03000
C834        C  0.78693090  0.97430575  0.53439157     0.02500
C835        C  0.79818253  0.92678764  0.57046981     0.09400
N836        N  0.75436462  0.91949953  0.55740791     0.65700
H837        H  0.73839819  0.94954634  0.53295872     0.18600
N838        N  0.79815605  0.99315295  0.52794827     0.76200
H839        H  0.81417554  0.96209462  0.55153863     0.10200
C840        C  0.81118688  0.90975051  0.56377590     0.03900
C841        C  0.82032219  0.89603428  0.57900574    -0.04900
C842        C  0.81709545  0.89910382  0.60108603    -0.23300
C843        C  0.80475559  0.91687630  0.60772041     0.13100
C844        C  0.79532338  0.93031204  0.59240443    -0.12400
N845        N  0.81513027  0.90604020  0.54158556     0.64800
H846        H  0.83000110  0.88279652  0.57342972     0.12600
N847        N  0.80101523  0.92122974  0.62983552     0.61400
H848        H  0.78549466  0.94356687  0.59769414     0.08800
O849        O  0.81130421  0.99196611  0.51276209    -0.40100
O850        O  0.79924564  0.00880038  0.54068333    -0.39200
O851        O  0.74224656  0.92151335  0.57335112    -0.39200
O852        O  0.75237280  0.90333910  0.54545209    -0.36900
O853        O  0.81198409  0.93543633  0.63909141    -0.37800
O854        O  0.78377924  0.91515517  0.63822044    -0.34000
O855        O  0.83231812  0.91260820  0.53346923    -0.35400
O856        O  0.80424847  0.89216524  0.53175311    -0.39700
C857        C  0.76238899  0.05012820  0.44119688    -0.13400
C858        C  0.78442400  0.05271261  0.44304586     0.17000
C859        C  0.79530949  0.04234559  0.45980132     0.03300
C860        C  0.78407497  0.02955067  0.47427505    -0.11900
C861        C  0.76192993  0.02674001  0.47254547    -0.03000
C862        C  0.75104269  0.03736047  0.45564201     0.02500
C863        C  0.79540830  0.06764049  0.42836113     0.09400
N864        N  0.81784618  0.04432026  0.46209247     0.65700
H865        H  0.79292095  0.02177747  0.48704368     0.18600
N866        N  0.72856196  0.03543093  0.45269383     0.76200
H867        H  0.75380251  0.05843667  0.42856083     0.10200
C868        C  0.79642280  0.06376509  0.40619138     0.03900
C869        C  0.80572981  0.07893433  0.39265639    -0.04900
C870        C  0.81346283  0.09852241  0.40061268    -0.23300
C871        C  0.81189219  0.10257357  0.42290589     0.13100
C872        C  0.80329792  0.08697383  0.43649400    -0.12400
N873        N  0.78769703  0.04468404  0.39709596     0.64800
H874        H  0.80630799  0.07550884  0.37563994     0.12600
N875        N  0.81804987  0.12266182  0.43199574     0.61400
H876        H  0.80195593  0.09036188  0.45348479     0.08800
O877        O  0.72149751  0.02274804  0.43864284    -0.40100
O878        O  0.71654967  0.04991943  0.45984626    -0.39200
O879        O  0.82534032  0.05597568  0.47679304    -0.39200
O880        O  0.82973764  0.03075156  0.45317120    -0.36900
O881        O  0.80430038  0.13723389  0.43398504    -0.37800
O882        O  0.83529494  0.12402434  0.44229962    -0.34000
O883        O  0.76959858  0.04538160  0.38831888    -0.35400
O884        O  0.79984546  0.02911590  0.39318841    -0.39700
C885        C  0.23419358  0.05752766  0.55789063    -0.13400
C886        C  0.21221588  0.05516302  0.56055786     0.17000
C887        C  0.20140826  0.03912668  0.54905956     0.03300
C888        C  0.21274218  0.02545708  0.53549906    -0.11900
C889        C  0.23492766  0.02740780  0.53294521    -0.03000
C890        C  0.24562189  0.04401545  0.54421192     0.02500
C891        C  0.20084397  0.07052848  0.57442421     0.09400
N892        N  0.17886756  0.03672967  0.55068112     0.65700
H893        H  0.20396563  0.01310400  0.52702222     0.18600
N894        N  0.26789278  0.04789943  0.54165037     0.76200
H895        H  0.24254911  0.07018999  0.56637269     0.10200
C896        C  0.19638689  0.06588123  0.59599030     0.03900
C897        C  0.18741974  0.08161361  0.60910228    -0.04900
C898        C  0.18286645  0.10226247  0.60126341    -0.23300
C899        C  0.18707473  0.10669058  0.57940181     0.13100
C900        C  0.19597677  0.09084182  0.56631509    -0.12400
N901        N  0.20161703  0.04554903  0.60506402     0.64800
H902        H  0.18448110  0.07766608  0.62575546     0.12600
N903        N  0.18254409  0.12710531  0.57013186     0.61400
H904        H  0.19948093  0.09455203  0.54970799     0.08800
O905        O  0.28070638  0.04102264  0.55563033    -0.40100
O906        O  0.27393584  0.06237814  0.52892134    -0.39200
O907        O  0.16710182  0.04521821  0.53666088    -0.39200
O908        O  0.17135060  0.02216634  0.56247239    -0.36900
O909        O  0.19734228  0.14066970  0.56829223    -0.37800
O910        O  0.16573746  0.12945123  0.55928936    -0.34000
O911        O  0.21858805  0.04366351  0.61573624    -0.35400
O912        O  0.18720679  0.03160200  0.60709684    -0.39700
C913        C  0.17912153  0.92626827  0.43274085    -0.13400
C914        C  0.20123406  0.92935459  0.43313522     0.17000
C915        C  0.21391582  0.91844365  0.41810147     0.03300
C916        C  0.20440755  0.90512097  0.40292291    -0.11900
C917        C  0.18224448  0.90205027  0.40223933    -0.03000
C918        C  0.16953034  0.91274042  0.41758192     0.02500
C919        C  0.21108930  0.94284525  0.45004087     0.09400
N920        N  0.23653753  0.92088952  0.41782123     0.65700
H921        H  0.21468412  0.89712281  0.39151663     0.18600
N922        N  0.14701079  0.90969636  0.41846121     0.76200
H923        H  0.16922832  0.93400383  0.44466269     0.10200
C924        C  0.20555641  0.96454635  0.45294043     0.03900
C925        C  0.21623664  0.97685176  0.46837644    -0.04900
C926        C  0.23234729  0.96789148  0.48116468    -0.23300
C927        C  0.23682774  0.94585548  0.47917762     0.13100
C928        C  0.22627847  0.93365154  0.46366417    -0.12400
N929        N  0.18970475  0.97450245  0.43987712     0.64800
H930        H  0.21240512  0.99373591  0.46984837     0.12600
N931        N  0.25109454  0.93530000  0.49352644     0.61400
H932        H  0.22978176  0.91667721  0.46244736     0.08800
O933        O  0.13489079  0.92386544  0.41079514    -0.40100
O934        O  0.13943156  0.89575464  0.43095211    -0.39200
O935        O  0.24807014  0.90599858  0.42503920    -0.39200
O936        O  0.24473112  0.93487191  0.40578851    -0.36900
O937        O  0.24463113  0.93050771  0.51203329    -0.37800
O938        O  0.26693757  0.92552499  0.48598338    -0.34000
O939        O  0.17140511  0.97776228  0.44747531    -0.35400
O940        O  0.19519449  0.98400287  0.42292990    -0.39700
C941        C  0.72766962  0.74621579  0.62533306    -0.13400
C942        C  0.74652380  0.73819331  0.61640947     0.17000
C943        C  0.74789265  0.71607367  0.61177948     0.03300
C944        C  0.73084658  0.70249181  0.61671509    -0.11900
C945        C  0.71254027  0.71043012  0.62660736    -0.03000
C946        C  0.71074533  0.73256676  0.63046816     0.02500
C947        C  0.76553651  0.75233490  0.61600598     0.09400
N948        N  0.76673319  0.70701243  0.60281199     0.65700
H949        H  0.73230061  0.68544064  0.61363738     0.18600
N950        N  0.69192196  0.74139706  0.63968717     0.76200
H951        H  0.72650329  0.76303569  0.62952880     0.10200
C952        C  0.76548433  0.77254427  0.60576801     0.03900
C953        C  0.78207129  0.78711317  0.60966050    -0.04900
C954        C  0.79848089  0.78211976  0.62405675    -0.23300
C955        C  0.79907171  0.76153109  0.63338954     0.13100
C956        C  0.78274549  0.74691424  0.62923576    -0.12400
N957        N  0.74827281  0.77889970  0.59219982     0.64800
H958        H  0.78134612  0.80293914  0.60248367     0.12600
N959        N  0.81575425  0.75545902  0.64775213     0.61400
H960        H  0.78282315  0.73170598  0.63766162     0.08800
O961        O  0.67812629  0.74975778  0.62759269    -0.40100
O962        O  0.69148374  0.74532975  0.65949034    -0.39200
O963        O  0.77904797  0.69632124  0.61468880    -0.39200
O964        O  0.76794830  0.70480004  0.58278129    -0.36900
O965        O  0.83093054  0.74422416  0.64085805    -0.37800
O966        O  0.81276203  0.75678636  0.66767698    -0.34000
O967        O  0.73450594  0.79175841  0.59926705    -0.35400
O968        O  0.74989789  0.77626074  0.57225128    -0.39700
C969        C  0.27389595  0.25720796  0.63883749    -0.13400
C970        C  0.25814115  0.26214209  0.62375654     0.17000
C971        C  0.26003989  0.28114817  0.61168195     0.03300
C972        C  0.27707727  0.29528998  0.61566505    -0.11900
C973        C  0.29199220  0.29105059  0.63194822    -0.03000
C974        C  0.29055319  0.27142619  0.64318041     0.02500
C975        C  0.23849136  0.24893608  0.62415741     0.09400
N976        N  0.24416058  0.28697538  0.59637098     0.65700
H977        H  0.27784949  0.31029483  0.60691565     0.18600
N978        N  0.30554404  0.26586946  0.65949602     0.76200
H979        H  0.27256578  0.24263704  0.64825170     0.10200
C980        C  0.23528503  0.23139860  0.61031422     0.03900
C981        C  0.21933385  0.21627129  0.61486839    -0.04900
C982        C  0.20677116  0.21800573  0.63337373    -0.23300
C983        C  0.20924779  0.23629897  0.64650573     0.13100
C984        C  0.22487913  0.25153468  0.64169125    -0.12400
N985        N  0.24891609  0.22794530  0.59240736     0.64800
H986        H  0.21762220  0.20242512  0.60451044     0.12600
N987        N  0.19634468  0.23950930  0.66503983     0.61400
H988        H  0.22724547  0.26494536  0.65250125     0.08800
O989        O  0.32061845  0.25334539  0.65500523    -0.40100
O990        O  0.30071395  0.26883443  0.67886582    -0.39200
O991        O  0.22967824  0.29986351  0.60172248    -0.39200
O992        O  0.24751045  0.28353584  0.57676804    -0.36900
O993        O  0.18042937  0.25174749  0.66381830    -0.37800
O994        O  0.20362667  0.23457411  0.68322957    -0.34000
O995        O  0.26413729  0.21490277  0.59414572    -0.35400
O996        O  0.24265767  0.23342510  0.57399743    -0.39700
C997        C  0.56243125  0.55352819  0.73343585    -0.13400
C998        C  0.55903985  0.55535368  0.71137235     0.17000
C999        C  0.54319289  0.54280162  0.70156385     0.03300
C1000       C  0.53080386  0.52895132  0.71399561    -0.11900
C1001       C  0.53400115  0.52704193  0.73624968    -0.03000
C1002       C  0.55030078  0.53948344  0.74591312     0.02500
C1003       C  0.57327774  0.56957010  0.69904968     0.09400
N1004       N  0.54000194  0.54322667  0.67892410     0.65700
H1005       H  0.51862172  0.51960235  0.70600074     0.18600
N1006       N  0.55530716  0.53782561  0.76816844     0.76200
H1007       H  0.57490749  0.56287512  0.74100318     0.10200
C1008       C  0.56662000  0.58982921  0.69182407     0.03900
C1009       C  0.58143423  0.60394179  0.68280209    -0.04900
C1010       C  0.60305138  0.59840679  0.68097776    -0.23300
C1011       C  0.60952820  0.57776770  0.68793055     0.13100
C1012       C  0.59461517  0.56368121  0.69678664    -0.12400
N1013       N  0.54517568  0.59680099  0.69466249     0.64800
H1014       H  0.57596176  0.61962931  0.67767549     0.12600
N1015       N  0.63125744  0.57110143  0.68711303     0.61400
H1016       H  0.59990292  0.54816622  0.70263845     0.08800
O1017       O  0.56842704  0.52378253  0.77423048    -0.40100
O1018       O  0.55173748  0.55365157  0.78016069    -0.39200
O1019       O  0.54883415  0.52911157  0.66757724    -0.39200
O1020       O  0.52425967  0.55326148  0.67140452    -0.36900
O1021       O  0.64278412  0.57304125  0.70357576    -0.37800
O1022       O  0.63722138  0.55891479  0.67219137    -0.34000
O1023       O  0.54035207  0.60706102  0.71134752    -0.35400
O1024       O  0.53290239  0.59755198  0.67866714    -0.39700
C1025       C  0.46650578  0.44967479  0.70711105    -0.13400
C1026       C  0.44648131  0.44663685  0.71643886     0.17000
C1027       C  0.44191010  0.45645675  0.73615051     0.03300
C1028       C  0.45738770  0.46899614  0.74626422    -0.11900
C1029       C  0.47756776  0.47202788  0.73711188    -0.03000
C1030       C  0.48206933  0.46224368  0.71721762     0.02500
C1031       C  0.43142622  0.43140722  0.70651996     0.09400
N1032       N  0.42189993  0.45322686  0.74647593     0.65700
H1033       H  0.45352852  0.47643379  0.76146709     0.18600
N1034       N  0.50270032  0.46366242  0.70775765     0.76200
H1035       H  0.47027317  0.44171956  0.69214625     0.10200
C1036       C  0.41446087  0.43832621  0.69353263     0.03900
C1037       C  0.40048781  0.42327132  0.68468244    -0.04900
C1038       C  0.40317030  0.40121880  0.68835173    -0.23300
C1039       C  0.42049003  0.39433620  0.70111324     0.13100
C1040       C  0.43436467  0.40946531  0.71006052    -0.12400
N1041       N  0.41143435  0.46050771  0.68884498     0.64800
H1042       H  0.38746528  0.42893689  0.67473618     0.12600
N1043       N  0.42374838  0.37220553  0.70591185     0.61400
H1044       H  0.44746020  0.40405532  0.72006102     0.08800
O1045       O  0.50540257  0.47557372  0.69166227    -0.40100
O1046       O  0.51626349  0.44934985  0.71187805    -0.39200
O1047       O  0.42044081  0.43934687  0.76109119    -0.39200
O1048       O  0.40768199  0.46737364  0.74481156    -0.36900
O1049       O  0.43735068  0.36173328  0.69543181    -0.37800
O1050       O  0.41673610  0.36464753  0.72326226    -0.34000
O1051       O  0.41825981  0.46791072  0.67135535    -0.35400
O1052       O  0.39764967  0.47092756  0.69912423    -0.39700
C1053       C  0.30200435  0.44297137  0.59751054    -0.13400
C1054       C  0.28978828  0.43502405  0.58050126     0.17000
C1055       C  0.28904761  0.41281117  0.57689100     0.03300
C1056       C  0.30034374  0.39892663  0.59032652    -0.11900
C1057       C  0.31258955  0.40667927  0.60755724    -0.03000
C1058       C  0.31335467  0.42912445  0.61104449     0.02500
C1059       C  0.27976850  0.45026953  0.56542600     0.09400
N1060       N  0.27725952  0.40411567  0.55934827     0.65700
H1061       H  0.29934133  0.38185362  0.58724924     0.18600
N1062       N  0.32608127  0.43827929  0.62768469     0.76200
H1063       H  0.30303399  0.46013766  0.60007026     0.10200
C1064       C  0.25832652  0.45637153  0.56717190     0.03900
C1065       C  0.24969817  0.47103946  0.55257110    -0.04900
C1066       C  0.26207771  0.48005789  0.53603521    -0.23300
C1067       C  0.28378700  0.47404752  0.53474535     0.13100
C1068       C  0.29228113  0.45927328  0.54930568    -0.12400
N1069       N  0.24518370  0.44810598  0.58387573     0.64800
H1070       H  0.23309843  0.47541040  0.55437530     0.12600
N1071       N  0.29756319  0.48236589  0.51868905     0.61400
H1072       H  0.30890704  0.45475604  0.54799614     0.08800
O1073       O  0.31717880  0.44471989  0.64457466    -0.40100
O1074       O  0.34459442  0.44481481  0.62334893    -0.39200
O1075       O  0.28695313  0.39895764  0.54246244    -0.39200
O1076       O  0.25875856  0.39693475  0.56255221    -0.36900
O1077       O  0.31008264  0.49741608  0.52361392    -0.37800
O1078       O  0.30188889  0.47069782  0.50280867    -0.34000
O1079       O  0.24228908  0.45920824  0.60047960    -0.35400
O1080       O  0.23268286  0.43277975  0.57988257    -0.39700
C1081       C  0.26437663  0.73108210  0.37957125    -0.13400
C1082       C  0.26398033  0.74662657  0.36329639     0.17000
C1083       C  0.27984380  0.74607586  0.34729863     0.03300
C1084       C  0.29542084  0.73017546  0.34782740    -0.11900
C1085       C  0.29521443  0.71415988  0.36352340    -0.03000
C1086       C  0.27949521  0.71463693  0.37955658     0.02500
C1087       C  0.24726627  0.76345948  0.36348873     0.09400
N1088       N  0.27968373  0.76070858  0.32969041     0.65700
H1089       H  0.30716128  0.72967862  0.33507947     0.18600
N1090       N  0.27896368  0.69891657  0.39616887     0.76200
H1091       H  0.25283053  0.73168482  0.39246467     0.10200
C1092       C  0.22550673  0.75826629  0.36558425     0.03900
C1093       C  0.21026675  0.77449491  0.36554575    -0.04900
C1094       C  0.21593921  0.79611637  0.36281503    -0.23300
C1095       C  0.23783188  0.80135285  0.36107685     0.13100
C1096       C  0.25314144  0.78508578  0.36183184    -0.12400
N1097       N  0.21841238  0.73652482  0.36651418     0.64800
H1098       H  0.19364796  0.76984743  0.36675536     0.12600
N1099       N  0.24490131  0.82287963  0.35785857     0.61400
H1100       H  0.26985357  0.78944744  0.36086787     0.08800
O1101       O  0.26533998  0.68406636  0.39528519    -0.40100
O1102       O  0.28814179  0.70283110  0.41372822    -0.39200
O1103       O  0.29389187  0.77497859  0.32858962    -0.39200
O1104       O  0.26923674  0.75596643  0.31307410    -0.36900
O1105       O  0.25184187  0.83343341  0.37362445    -0.37800
O1106       O  0.24925579  0.82910480  0.33914310    -0.34000
O1107       O  0.21153241  0.72914391  0.38399687    -0.35400
O1108       O  0.21390558  0.72692435  0.34931956    -0.39700
C1109       C  0.29486107  0.54320869  0.45462848    -0.13400
C1110       C  0.28598813  0.56307597  0.44944502     0.17000
C1111       C  0.26654734  0.56907510  0.45894495     0.03300
C1112       C  0.25636561  0.55508692  0.47306177    -0.11900
C1113       C  0.26507563  0.53500146  0.47812001    -0.03000
C1114       C  0.28475237  0.52920066  0.46883540     0.02500
C1115       C  0.29606629  0.57619466  0.43249122     0.09400
N1116       N  0.25690391  0.58930938  0.45446514     0.65700
H1117       H  0.24145617  0.56012658  0.48021310     0.18600
N1118       N  0.29423886  0.50878371  0.47247329     0.76200
H1119       H  0.30934942  0.53800191  0.44676735     0.10200
C1120       C  0.31780051  0.58193888  0.43321350     0.03900
C1121       C  0.32667997  0.59380107  0.41645999    -0.04900
C1122       C  0.31428582  0.60027303  0.39889434    -0.23300
C1123       C  0.29270561  0.59384007  0.39787296     0.13100
C1124       C  0.28395615  0.58178635  0.41449576    -0.12400
N1125       N  0.33091839  0.57646632  0.45111329     0.64800
H1126       H  0.34325573  0.59860682  0.41762142     0.12600
N1127       N  0.27951344  0.59895553  0.37991844     0.61400
H1128       H  0.26754253  0.57649551  0.41316023     0.08800
O1129       O  0.31299603  0.50813118  0.47971534    -0.40100
O1130       O  0.28704788  0.49276168  0.46248141    -0.39200
O1131       O  0.24055436  0.58998195  0.44270557    -0.39200
O1132       O  0.26121707  0.60511315  0.46628684    -0.36900
O1133       O  0.27777296  0.58564965  0.36481888    -0.37800
O1134       O  0.26598233  0.61376705  0.38159134    -0.34000
O1135       O  0.34441968  0.56165293  0.44921813    -0.35400
O1136       O  0.33266958  0.58950647  0.46643633    -0.39700
C1137       C  0.53985518  0.70302241  0.54912371    -0.13400
C1138       C  0.55500118  0.71576518  0.55957658     0.17000
C1139       C  0.55502978  0.73802519  0.55609109     0.03300
C1140       C  0.53978030  0.74716937  0.54266382    -0.11900
C1141       C  0.52435680  0.73458537  0.53217505    -0.03000
C1142       C  0.52466471  0.71209536  0.53542531     0.02500
C1143       C  0.57112792  0.70548624  0.57341305     0.09400
N1144       N  0.57028378  0.75165662  0.56626882     0.65700
H1145       H  0.54025696  0.76438906  0.54037973     0.18600
N1146       N  0.50989708  0.69812135  0.52500383     0.76200
H1147       H  0.54003998  0.68577629  0.55134882     0.10200
C1148       C  0.56523757  0.69382377  0.59176257     0.03900
C1149       C  0.58087491  0.68439494  0.60452490    -0.04900
C1150       C  0.60254814  0.68614364  0.59936461    -0.23300
C1151       C  0.60839863  0.69736729  0.58053791     0.13100
C1152       C  0.59266545  0.70692768  0.56786072    -0.12400
N1153       N  0.54347066  0.69187926  0.59800904     0.64800
H1154       H  0.57590475  0.67571377  0.61872758     0.12600
N1155       N  0.63012996  0.69963304  0.57420036     0.61400
H1156       H  0.59730914  0.71550045  0.55347599     0.08800
O1157       O  0.49422151  0.69097337  0.53539939    -0.40100
O1158       O  0.51545091  0.68874991  0.50802440    -0.39200
O1159       O  0.58576501  0.75873843  0.55553326    -0.39200
O1160       O  0.56546754  0.76069257  0.58364729    -0.36900
O1161       O  0.63755962  0.68722939  0.56014910    -0.37800
O1162       O  0.63996665  0.71672232  0.57857948    -0.34000
O1163       O  0.53366298  0.67462562  0.59425928    -0.35400
O1164       O  0.53605054  0.70474902  0.61163118    -0.39700
C1165       C  0.44823292  0.72924839  0.44302731    -0.13400
C1166       C  0.43901320  0.71015947  0.45040899     0.17000
C1167       C  0.44531807  0.70199204  0.47051159     0.03300
C1168       C  0.46017132  0.71323537  0.48293851    -0.11900
C1169       C  0.46882934  0.73271085  0.47584338    -0.03000
C1170       C  0.46288142  0.74061327  0.45549549     0.02500
C1171       C  0.42367523  0.69880073  0.43626912     0.09400
N1172       N  0.43625580  0.68276155  0.47890209     0.65700
H1173       H  0.46444652  0.70697624  0.49860056     0.18600
N1174       N  0.47218862  0.75963493  0.44683231     0.76200
H1175       H  0.44424592  0.73527375  0.42720108     0.10200
C1176       C  0.40576089  0.70948176  0.42786578     0.03900
C1177       C  0.39344770  0.69976468  0.41198371    -0.04900
C1178       C  0.39832038  0.67927776  0.40413679    -0.23300
C1179       C  0.41570093  0.66810619  0.41327363     0.13100
C1180       C  0.42823674  0.67800863  0.42909917    -0.12400
N1181       N  0.39981805  0.73027003  0.43529997     0.64800
H1182       H  0.37986300  0.70848489  0.40570489     0.12600
N1183       N  0.42164327  0.64731504  0.40591176     0.61400
H1184       H  0.44219735  0.66973562  0.43513457     0.08800
O1185       O  0.48879103  0.75816703  0.43560949    -0.40100
O1186       O  0.46133074  0.77660098  0.44604329    -0.39200
O1187       O  0.44731438  0.66591650  0.47925311    -0.39200
O1188       O  0.41999903  0.68396112  0.49065224    -0.36900
O1189       O  0.43571762  0.64567284  0.39163589    -0.37800
O1190       O  0.41707445  0.63115740  0.41715549    -0.34000
O1191       O  0.40301923  0.74635343  0.42348170    -0.35400
O1192       O  0.38698138  0.73180583  0.45071843    -0.39700
C1193       C  0.44201474  0.27116337  0.55971669    -0.13400
C1194       C  0.43724186  0.29189003  0.55275614     0.17000
C1195       C  0.44572500  0.29915698  0.53323031     0.03300
C1196       C  0.45898980  0.28568064  0.52127857    -0.11900
C1197       C  0.46426333  0.26491246  0.52842115    -0.03000
C1198       C  0.45537441  0.25771399  0.54793903     0.02500
C1199       C  0.42444065  0.30562334  0.56711994     0.09400
N1200       N  0.44190665  0.32043456  0.52577195     0.65700
H1201       H  0.46540978  0.29173440  0.50633442     0.18600
N1202       N  0.46041316  0.23732925  0.55683295     0.76200
H1203       H  0.43569758  0.26552144  0.57488145     0.10200
C1204       C  0.40287430  0.31007512  0.56296958     0.03900
C1205       C  0.39029556  0.31941012  0.57890082    -0.04900
C1206       C  0.39866182  0.32426547  0.59926252    -0.23300
C1207       C  0.42067582  0.32084244  0.60290601     0.13100
C1208       C  0.43321172  0.31157220  0.58689410    -0.12400
N1209       N  0.39306653  0.30381159  0.54329485     0.64800
H1210       H  0.37353868  0.32192693  0.57551547     0.12600
N1211       N  0.43057455  0.32620576  0.62281995     0.61400
H1212       H  0.44983909  0.30819832  0.59023754     0.08800
O1213       O  0.44538886  0.22436311  0.56032162    -0.40100
O1214       O  0.47744658  0.23544158  0.56739755    -0.39200
O1215       O  0.45519353  0.33494162  0.53024445    -0.39200
O1216       O  0.42915164  0.32329237  0.51040886    -0.36900
O1217       O  0.43328072  0.31179844  0.63673850    -0.37800
O1218       O  0.44086440  0.34351376  0.62435948    -0.34000
O1219       O  0.38391189  0.28584158  0.54220584    -0.35400
O1220       O  0.38855824  0.31800411  0.52964001    -0.39700
C1221       C  0.73423595  0.27007792  0.39521038    -0.13400
C1222       C  0.73424606  0.25166889  0.38242293     0.17000
C1223       C  0.71663352  0.24709534  0.36928366     0.03300
C1224       C  0.69991509  0.26161398  0.36807011    -0.11900
C1225       C  0.70053053  0.28095555  0.37944961    -0.03000
C1226       C  0.71743938  0.28478650  0.39390608     0.02500
C1227       C  0.75335073  0.23823821  0.38123991     0.09400
N1228       N  0.71629008  0.22863010  0.35577604     0.65700
H1229       H  0.68697803  0.25841055  0.35694207     0.18600
N1230       N  0.71878809  0.30423287  0.40585541     0.76200
H1231       H  0.74782491  0.27356107  0.40541310     0.10200
C1232       C  0.76922020  0.24276561  0.36605152     0.03900
C1233       C  0.78525961  0.22788967  0.36237887    -0.04900
C1234       C  0.78604392  0.20866004  0.37392415    -0.23300
C1235       C  0.77115694  0.20491086  0.39038034     0.13100
C1236       C  0.75468719  0.21961954  0.39367759    -0.12400
N1237       N  0.76878744  0.26202918  0.35368982     0.64800
H1238       H  0.79694176  0.23116847  0.34999354     0.12600
N1239       N  0.77171846  0.18573984  0.40285415     0.61400
H1240       H  0.74248039  0.21616372  0.40547149     0.08800
O1241       O  0.73024236  0.31933337  0.39893252    -0.40100
O1242       O  0.71327145  0.30420239  0.42526354    -0.39200
O1243       O  0.70478236  0.21284834  0.36083338    -0.39200
O1244       O  0.72318544  0.23011402  0.33687564    -0.36900
O1245       O  0.78023773  0.18611699  0.42116444    -0.37800
O1246       O  0.75976942  0.17026484  0.39783901    -0.34000
O1247       O  0.78038303  0.27758225  0.35927397    -0.35400
O1248       O  0.76110690  0.26166536  0.33501155    -0.39700
C1249       C  0.55596723  0.30342553  0.41187545    -0.13400
C1250       C  0.56244705  0.29936952  0.43295284     0.17000
C1251       C  0.58350218  0.30422644  0.43902224     0.03300
C1252       C  0.59785762  0.31219023  0.42388866    -0.11900
C1253       C  0.59183888  0.31536808  0.40241286    -0.03000
C1254       C  0.57034103  0.31129423  0.39658850     0.02500
C1255       C  0.54799420  0.28749124  0.44749029     0.09400
N1256       N  0.59066371  0.30089951  0.46048414     0.65700
H1257       H  0.61405208  0.31542826  0.42903146     0.18600
N1258       N  0.56286659  0.31437713  0.37518786     0.76200
H1259       H  0.53981222  0.29957522  0.40699379     0.10200
C1260       C  0.52911304  0.29652995  0.45548765     0.03900
C1261       C  0.51576079  0.28436747  0.46871787    -0.04900
C1262       C  0.52054826  0.26296327  0.47393461    -0.23300
C1263       C  0.53918582  0.25373768  0.46516386     0.13100
C1264       C  0.55272125  0.26611891  0.45233809    -0.12400
N1265       N  0.52341534  0.31812217  0.45060827     0.64800
H1266       H  0.50143104  0.29181254  0.47486478     0.12600
N1267       N  0.54482171  0.23193659  0.46912988     0.61400
H1268       H  0.56698074  0.25884384  0.44580545     0.08800
O1269       O  0.55232895  0.33098011  0.37071438    -0.40100
O1270       O  0.56226216  0.29861067  0.36257151    -0.39200
O1271       O  0.60213719  0.28486488  0.46467677    -0.39200
O1272       O  0.59010434  0.31629797  0.47353789    -0.36900
O1273       O  0.54053529  0.21796360  0.45517351    -0.37800
O1274       O  0.55838136  0.22773488  0.48345181    -0.34000
O1275       O  0.50955465  0.32166388  0.43639379    -0.35400
O1276       O  0.52811433  0.33276585  0.46370875    -0.39700
C1277       C  0.73347065  0.55136177  0.55664533    -0.13400
C1278       C  0.71159682  0.55353651  0.55356502     0.17000
C1279       C  0.70188569  0.54287958  0.53628249     0.03300
C1280       C  0.71414351  0.52993276  0.52270766    -0.11900
C1281       C  0.73632381  0.52769803  0.52557664    -0.03000
C1282       C  0.74590128  0.53895387  0.54285797     0.02500
C1283       C  0.69989273  0.56845292  0.56771064     0.09400
N1284       N  0.67963164  0.54511711  0.53224089     0.65700
H1285       H  0.70614333  0.52187493  0.50956445     0.18600
N1286       N  0.76827381  0.53892191  0.54645377     0.76200
H1287       H  0.74116848  0.55995673  0.56966303     0.10200
C1288       C  0.69635967  0.56353754  0.58940367     0.03900
C1289       C  0.68837254  0.57917797  0.60322399    -0.04900
C1290       C  0.68408919  0.60012024  0.59607703    -0.23300
C1291       C  0.68752960  0.60494183  0.57414349     0.13100
C1292       C  0.69519018  0.58907115  0.56026000    -0.12400
N1293       N  0.70123412  0.54282079  0.59777309     0.64800
H1294       H  0.68592727  0.57486259  0.61987526     0.12600
N1295       N  0.68419856  0.62597449  0.56577533     0.61400
H1296       H  0.69840580  0.59316925  0.54367531     0.08800
O1297       O  0.77599481  0.52507979  0.55897051    -0.40100
O1298       O  0.77829176  0.55621879  0.54355659    -0.39200
O1299       O  0.67341184  0.55788095  0.51786946    -0.39200
O1300       O  0.66690275  0.53123249  0.53943221    -0.36900
O1301       O  0.69964394  0.63889934  0.56496468    -0.37800
O1302       O  0.66767837  0.62977300  0.55490443    -0.34000
O1303       O  0.71793207  0.54032161  0.60875348    -0.35400
O1304       O  0.68674830  0.52882976  0.59864985    -0.39700
C1305       C  0.69641630  0.40859323  0.43600765    -0.13400
C1306       C  0.70150926  0.42865710  0.42728704     0.17000
C1307       C  0.69737232  0.43230303  0.40538828     0.03300
C1308       C  0.68807531  0.41618918  0.39283350    -0.11900
C1309       C  0.68291887  0.39597903  0.40141088    -0.03000
C1310       C  0.68741132  0.39226624  0.42338823     0.02500
C1311       C  0.71278655  0.44480946  0.44079401     0.09400
N1312       N  0.70234381  0.45238232  0.39561745     0.65700
H1313       H  0.68498637  0.41963540  0.37608490     0.18600
N1314       N  0.68373615  0.37186641  0.43308039     0.76200
H1315       H  0.70009159  0.40531864  0.45268104     0.10200
C1316       C  0.70336364  0.45392921  0.45910992     0.03900
C1317       C  0.71497637  0.46825447  0.47198402    -0.04900
C1318       C  0.73627581  0.47350262  0.46738082    -0.23300
C1319       C  0.74571295  0.46409243  0.44899283     0.13100
C1320       C  0.73388377  0.45014043  0.43595790    -0.12400
N1321       N  0.68196327  0.44884555  0.46485521     0.64800
H1322       H  0.70729171  0.47496578  0.48598676     0.12600
N1323       N  0.76732816  0.46821958  0.44324851     0.61400
H1324       H  0.74148801  0.44294392  0.42214045     0.08800
O1325       O  0.66754230  0.36922976  0.44469683    -0.40100
O1326       O  0.69882997  0.35860656  0.43425884    -0.39200
O1327       O  0.71863735  0.45385173  0.38393408    -0.39200
O1328       O  0.68802278  0.46644450  0.39413073    -0.36900
O1329       O  0.78127673  0.45436244  0.44761285    -0.37800
O1330       O  0.77126683  0.48213355  0.42913843    -0.34000
O1331       O  0.67857797  0.43515688  0.47932837    -0.35400
O1332       O  0.66714861  0.46127085  0.45925251    -0.39700
C1333       C  0.45695589  0.56328561  0.27076869    -0.13400
C1334       C  0.45118525  0.55724963  0.29160353     0.17000
C1335       C  0.46111553  0.53920590  0.30088101     0.03300
C1336       C  0.47613578  0.52756067  0.28911627    -0.11900
C1337       C  0.48129385  0.53306563  0.26792113    -0.03000
C1338       C  0.47153748  0.55139133  0.25881687     0.02500
C1339       C  0.43343103  0.56911595  0.30196516     0.09400
N1340       N  0.45520322  0.53147003  0.32154982     0.65700
H1341       H  0.48308158  0.51343867  0.29643369     0.18600
N1342       N  0.47586110  0.55810857  0.23738185     0.76200
H1343       H  0.44953841  0.57715873  0.26339860     0.10200
C1344       C  0.43566764  0.58022549  0.32154096     0.03900
C1345       C  0.41896575  0.59308080  0.32899057    -0.04900
C1346       C  0.40018820  0.59579477  0.31702652    -0.23300
C1347       C  0.39779432  0.58428403  0.29772741     0.13100
C1348       C  0.41419156  0.57095767  0.29061056    -0.12400
N1349       N  0.45522820  0.58012312  0.33324566     0.64800
H1350       H  0.42123992  0.60198814  0.34374573     0.12600
N1351       N  0.37885837  0.58586195  0.28512263     0.61400
H1352       H  0.41212064  0.56241101  0.27561183     0.08800
O1353       O  0.48891343  0.57315637  0.23422413    -0.40100
O1354       O  0.46313115  0.55289113  0.22260905    -0.39200
O1355       O  0.43945366  0.51899838  0.32305136    -0.39200
O1356       O  0.46894554  0.53152941  0.33631975    -0.36900
O1357       O  0.37849197  0.59844334  0.26930595    -0.37800
O1358       O  0.36495918  0.57131634  0.28648979    -0.34000
O1359       O  0.46950214  0.59345813  0.32827567    -0.35400
O1360       O  0.45558639  0.57184349  0.35167913    -0.39700
C1361       C  0.55240680  0.45958580  0.29748615    -0.13400
C1362       C  0.56016087  0.44246942  0.28534836     0.17000
C1363       C  0.55438098  0.44084724  0.26363914     0.03300
C1364       C  0.54181785  0.45677471  0.25420987    -0.11900
C1365       C  0.53434811  0.47434916  0.26610284    -0.03000
C1366       C  0.53947223  0.47537716  0.28821347     0.02500
C1367       C  0.57404768  0.42636695  0.29573138     0.09400
N1368       N  0.56044791  0.42271136  0.25114947     0.65700
H1369       H  0.53763632  0.45511395  0.23742676     0.18600
N1370       N  0.53208037  0.49241422  0.30149337     0.76200
H1371       H  0.55654005  0.46075625  0.31433180     0.10200
C1372       C  0.59624536  0.42652076  0.29267002     0.03900
C1373       C  0.60897488  0.41138570  0.30309830    -0.04900
C1374       C  0.60006347  0.39589677  0.31671910    -0.23300
C1375       C  0.57779158  0.39606938  0.32014106     0.13100
C1376       C  0.56505662  0.41124483  0.30962467    -0.12400
N1377       N  0.60620386  0.44231731  0.27950086     0.64800
H1378       H  0.62601178  0.41164741  0.30027877     0.12600
N1379       N  0.56795228  0.38165968  0.33491252     0.61400
H1380       H  0.54801889  0.41134432  0.31245218     0.08800
O1381       O  0.54423158  0.50807894  0.30527085    -0.40100
O1382       O  0.51616661  0.48928871  0.31338705    -0.39200
O1383       O  0.54788609  0.40697467  0.24981158    -0.39200
O1384       O  0.57512416  0.42465559  0.23754284    -0.36900
O1385       O  0.56560189  0.38737685  0.35413361    -0.37800
O1386       O  0.55734589  0.36598519  0.32787146    -0.34000
O1387       O  0.61379604  0.45891796  0.28815401    -0.35400
O1388       O  0.61229582  0.43721391  0.26097005    -0.39700
C1389       C  0.72067414  0.12904076  0.24657424    -0.13400
C1390       C  0.73909389  0.11847087  0.23999697     0.17000
C1391       C  0.73976591  0.10934814  0.21933692     0.03300
C1392       C  0.72239832  0.11193699  0.20531876    -0.11900
C1393       C  0.70463421  0.12404171  0.21143433    -0.03000
C1394       C  0.70365721  0.13207601  0.23252582     0.02500
C1395       C  0.75773646  0.11943822  0.25452916     0.09400
N1396       N  0.75815840  0.09813357  0.21209494     0.65700
H1397       H  0.72344565  0.10573031  0.18913405     0.18600
N1398       N  0.68613754  0.14472001  0.23951546     0.76200
H1399       H  0.71998846  0.13611761  0.26243206     0.10200
C1400       C  0.77275619  0.13607561  0.25239681     0.03900
C1401       C  0.78731498  0.14010206  0.26887932    -0.04900
C1402       C  0.78715715  0.12806638  0.28786807    -0.23300
C1403       C  0.77241292  0.11105642  0.28986097     0.13100
C1404       C  0.75789689  0.10689619  0.27319125    -0.12400
N1405       N  0.77218544  0.15027559  0.23445396     0.64800
H1406       H  0.79843086  0.15331208  0.26708310     0.12600
N1407       N  0.77043325  0.09937793  0.30942775     0.61400
H1408       H  0.74581651  0.09464504  0.27537324     0.08800
O1409       O  0.68846868  0.16476070  0.24058228    -0.40100
O1410       O  0.67130212  0.13589158  0.24988293    -0.39200
O1411       O  0.75806870  0.07792946  0.21228841    -0.39200
O1412       O  0.77162284  0.10784230  0.20068762    -0.36900
O1413       O  0.75744349  0.10579597  0.32339092    -0.37800
O1414       O  0.77731791  0.08043515  0.31041380    -0.34000
O1415       O  0.76189722  0.16755322  0.23586245    -0.35400
O1416       O  0.78579102  0.14820735  0.21978932    -0.39700
C1417       C  0.63175673  0.27004354  0.25435034    -0.13400
C1418       C  0.61524610  0.25532109  0.25768371     0.17000
C1419       C  0.60341365  0.25643061  0.27684316     0.03300
C1420       C  0.60831090  0.27210632  0.29219669    -0.11900
C1421       C  0.62541558  0.28624789  0.28919612    -0.03000
C1422       C  0.63708122  0.28524016  0.26990326     0.02500
C1423       C  0.61323567  0.23715088  0.24250568     0.09400
N1424       N  0.58687460  0.24135186  0.28124771     0.65700
H1425       H  0.59933477  0.27253898  0.30702467     0.18600
N1426       N  0.65455471  0.29936931  0.26591865     0.76200
H1427       H  0.64136832  0.26903149  0.23995605     0.10200
C1428       C  0.60903779  0.24037621  0.22051116     0.03900
C1429       C  0.61220851  0.22363458  0.20591664    -0.04900
C1430       C  0.61991612  0.20375671  0.21279980    -0.23300
C1431       C  0.62302836  0.20020398  0.23488258     0.13100
C1432       C  0.61956638  0.21681584  0.24948179    -0.12400
N1433       N  0.60249895  0.26081068  0.21263896     0.64800
H1434       H  0.60995706  0.22663565  0.18893129     0.12600
N1435       N  0.63073830  0.18017892  0.24268053     0.61400
H1436       H  0.62323923  0.21417963  0.26627737     0.08800
O1437       O  0.67327224  0.29294455  0.26942974    -0.40100
O1438       O  0.65170627  0.31564786  0.25428621    -0.39200
O1439       O  0.59053268  0.22596828  0.29383776    -0.39200
O1440       O  0.56786563  0.24622879  0.27694085    -0.36900
O1441       O  0.64927399  0.17933987  0.25038197    -0.37800
O1442       O  0.61754254  0.16572693  0.24753181    -0.34000
O1443       O  0.61595010  0.27277595  0.20357366    -0.35400
O1444       O  0.58292154  0.26442051  0.20998721    -0.39700
C1445       C  0.26268241  0.89311312  0.22716244    -0.13400
C1446       C  0.25896444  0.87731141  0.24268360     0.17000
C1447       C  0.27136326  0.85858280  0.24273204     0.03300
C1448       C  0.28723755  0.85599157  0.22749791    -0.11900
C1449       C  0.29079074  0.87141890  0.21153172    -0.03000
C1450       C  0.27845009  0.89031154  0.21152755     0.02500
C1451       C  0.24094970  0.87943426  0.25757686     0.09400
N1452       N  0.26693864  0.84125073  0.25702209     0.65700
H1453       H  0.29645006  0.84129598  0.22782429     0.18600
N1454       N  0.28048394  0.90590472  0.19493018     0.76200
H1455       H  0.25282090  0.90736491  0.22678174     0.10200
C1456       C  0.24423599  0.88309142  0.27952308     0.03900
C1457       C  0.22718514  0.88133925  0.29367661    -0.04900
C1458       C  0.20667769  0.87567838  0.28649163    -0.23300
C1459       C  0.20317117  0.87363879  0.26413991     0.13100
C1460       C  0.22033653  0.87551796  0.24998514    -0.12400
N1461       N  0.26487732  0.88811945  0.28777931     0.64800
H1462       H  0.23038076  0.88351680  0.31061729     0.12600
N1463       N  0.18264938  0.86878232  0.25549565     0.61400
H1464       H  0.21771993  0.87288695  0.23299802     0.08800
O1465       O  0.29055154  0.92302087  0.19859950    -0.40100
O1466       O  0.26810263  0.90498337  0.17902602    -0.39200
O1467       O  0.25370405  0.82711577  0.25134646    -0.39200
O1468       O  0.28011620  0.83691171  0.27166012    -0.36900
O1469       O  0.17136643  0.88382580  0.24820559    -0.37800
O1470       O  0.17846724  0.84977588  0.25003507    -0.34000
O1471       O  0.26985444  0.90749893  0.29059234    -0.35400
O1472       O  0.27536141  0.87379551  0.29736106    -0.39700
C1473       C  0.37798290  0.72286941  0.25241988    -0.13400
C1474       C  0.38420640  0.74286613  0.26054456     0.17000
C1475       C  0.38794425  0.74483549  0.28274520     0.03300
C1476       C  0.38430803  0.72734197  0.29631729    -0.11900
C1477       C  0.37668241  0.70764632  0.28840948    -0.03000
C1478       C  0.37424631  0.70535097  0.26597727     0.02500
C1479       C  0.38287072  0.76192033  0.24623308     0.09400
N1480       N  0.39477113  0.76467055  0.29190911     0.65700
H1481       H  0.38670984  0.72957570  0.31338319     0.18600
N1482       N  0.36652979  0.68592876  0.25669361     0.76200
H1483       H  0.37451408  0.72116990  0.23547540     0.10200
C1484       C  0.39397407  0.76316299  0.22661220     0.03900
C1485       C  0.38923867  0.77954219  0.21193954    -0.04900
C1486       C  0.37313261  0.79448296  0.21612317    -0.23300
C1487       C  0.36262812  0.79372488  0.23608417     0.13100
C1488       C  0.36764318  0.77763631  0.25087219    -0.12400
N1489       N  0.40955223  0.74751855  0.22100829     0.64800
H1490       H  0.39746277  0.77989028  0.19667369     0.12600
N1491       N  0.34663622  0.80901763  0.24152626     0.61400
H1492       H  0.35862731  0.77673402  0.26565123     0.08800
O1493       O  0.34688057  0.68392128  0.25295512    -0.40100
O1494       O  0.37948541  0.67342644  0.24771570    -0.39200
O1495       O  0.38152158  0.77597934  0.30197795    -0.39200
O1496       O  0.41439616  0.76781952  0.29489038    -0.36900
O1497       O  0.32727900  0.80417238  0.23905856    -0.37800
O1498       O  0.35151045  0.82466041  0.25335284    -0.34000
O1499       O  0.40466822  0.73290769  0.20793036    -0.35400
O1500       O  0.42893692  0.75139518  0.22465335    -0.39700
C1501       C  0.27442999  0.10574222  0.75917444    -0.13400
C1502       C  0.25602925  0.11860538  0.75919772     0.17000
C1503       C  0.25298855  0.13323846  0.77609305     0.03300
C1504       C  0.26879097  0.13596784  0.79155070    -0.11900
C1505       C  0.28769806  0.12411352  0.79091366    -0.03000
C1506       C  0.29009878  0.10815480  0.77517991     0.02500
C1507       C  0.24059907  0.11795628  0.74110947     0.09400
N1508       N  0.23446205  0.14643558  0.77710818     0.65700
H1509       H  0.26654808  0.14805034  0.80379100     0.18600
N1510       N  0.30874299  0.09510376  0.77469885     0.76200
H1511       H  0.27679884  0.09417122  0.74650347     0.10200
C1512       C  0.24618298  0.12589967  0.72073743     0.03900
C1513       C  0.23030944  0.12991922  0.70548106    -0.04900
C1514       C  0.20884295  0.12572373  0.70989040    -0.23300
C1515       C  0.20342182  0.11606902  0.72958420     0.13100
C1516       C  0.21929277  0.11238318  0.74502671    -0.12400
N1517       N  0.26768292  0.13144627  0.71581970     0.64800
H1518       H  0.23470455  0.13719952  0.69033619     0.12600
N1519       N  0.18176093  0.11163114  0.73489379     0.61400
H1520       H  0.21479269  0.10617229  0.76060098     0.08800
O1521       O  0.32560166  0.10228607  0.76640797    -0.40100
O1522       O  0.30949051  0.07835756  0.78599919    -0.39200
O1523       O  0.21992136  0.14177819  0.79021787    -0.39200
O1524       O  0.23498828  0.16494943  0.76901650    -0.36900
O1525       O  0.17497764  0.09263839  0.73363920    -0.37800
O1526       O  0.17137778  0.12517031  0.74559478    -0.34000
O1527       O  0.27876470  0.11869654  0.70486564    -0.35400
O1528       O  0.27374579  0.15060151  0.71796641    -0.39700
C1529       C  0.36399477  0.22371838  0.75039447    -0.13400
C1530       C  0.37923788  0.23932747  0.75534896     0.17000
C1531       C  0.39047667  0.23792561  0.77483439     0.03300
C1532       C  0.38578717  0.22142383  0.78932985    -0.11900
C1533       C  0.36947866  0.20661663  0.78503725    -0.03000
C1534       C  0.35884176  0.20759448  0.76506188     0.02500
C1535       C  0.37954429  0.25896271  0.74213877     0.09400
N1536       N  0.40585505  0.25377434  0.78060789     0.65700
H1537       H  0.39409103  0.22097567  0.80457458     0.18600
N1538       N  0.34239550  0.19271272  0.75958848     0.76200
H1539       H  0.35505092  0.22486119  0.73554519     0.10200
C1540       C  0.38937661  0.25977004  0.72189784     0.03900
C1541       C  0.38550048  0.27717329  0.70823606    -0.04900
C1542       C  0.37119874  0.29337274  0.71407146    -0.23300
C1543       C  0.36182303  0.29277254  0.73459999     0.13100
C1544       C  0.36636983  0.27583834  0.74850059    -0.12400
N1545       N  0.40231431  0.24253370  0.71450992     0.64800
H1546       H  0.39264380  0.27729780  0.69243769     0.12600
N1547       N  0.34711916  0.30883679  0.74134823     0.61400
H1548       H  0.35845190  0.27515883  0.76391545     0.08800
O1549       O  0.32318854  0.19812994  0.76182814    -0.40100
O1550       O  0.34681723  0.17682743  0.74795901    -0.39200
O1551       O  0.40051503  0.26888267  0.79286277    -0.39200
O1552       O  0.42534211  0.25002354  0.77760412    -0.36900
O1553       O  0.35338825  0.32342628  0.75383581    -0.37800
O1554       O  0.32740984  0.30554856  0.73913858    -0.34000
O1555       O  0.39442236  0.22894282  0.70181375    -0.35400
O1556       O  0.42227685  0.24395780  0.71622586    -0.39700
C1557       C  0.45618171  0.04096151  0.80007322    -0.13400
C1558       C  0.44979485  0.05951397  0.78921354     0.17000
C1559       C  0.45854470  0.06415676  0.76905454     0.03300
C1560       C  0.47285891  0.04987584  0.75968493    -0.11900
C1561       C  0.47907838  0.03099212  0.77022432    -0.03000
C1562       C  0.47086902  0.02677797  0.79089199     0.02500
C1563       C  0.43389794  0.07386638  0.79900403     0.09400
N1564       N  0.45313075  0.08341152  0.75796811     0.65700
H1565       H  0.47923915  0.05368368  0.74400202     0.18600
N1566       N  0.47655627  0.00787561  0.80244142     0.76200
H1567       H  0.44957515  0.03738825  0.81571500     0.10200
C1568       C  0.41201864  0.07098982  0.79515781     0.03900
C1569       C  0.39733697  0.08502427  0.80425277    -0.04900
C1570       C  0.40394632  0.10206861  0.81736228    -0.23300
C1571       C  0.42593696  0.10455512  0.82173301     0.13100
C1572       C  0.44067278  0.09053557  0.81239962    -0.12400
N1573       N  0.40442159  0.05387805  0.78202917     0.64800
H1574       H  0.38057859  0.08269529  0.80067536     0.12600
N1575       N  0.43350996  0.12049220  0.83630148     0.61400
H1576       H  0.45751507  0.09255588  0.81575931     0.08800
O1577       O  0.46425057  0.99188918  0.80194813    -0.40100
O1578       O  0.49046503  0.00909259  0.81699947    -0.39200
O1579       O  0.46534399  0.09942211  0.75930590    -0.39200
O1580       O  0.43904616  0.08292754  0.74354778    -0.36900
O1581       O  0.43517165  0.11591552  0.85591604    -0.37800
O1582       O  0.44301898  0.13679057  0.82912171    -0.34000
O1583       O  0.39659807  0.03746873  0.79082944    -0.35400
O1584       O  0.40056667  0.05740136  0.76251240    -0.39700
C1585       C  0.74924445  0.86867288  0.77717203    -0.13400
C1586       C  0.74142288  0.87347828  0.75672070     0.17000
C1587       C  0.71934540  0.87593271  0.75377991     0.03300
C1588       C  0.70544810  0.87252171  0.77091989    -0.11900
C1589       C  0.71304914  0.86630769  0.79117331    -0.03000
C1590       C  0.73538592  0.86492408  0.79433238     0.02500
C1591       C  0.75592819  0.87114905  0.73822722     0.09400
N1592       N  0.71072578  0.88105021  0.73323964     0.65700
H1593       H  0.68847728  0.87406891  0.76807119     0.18600
N1594       N  0.74429424  0.85800205  0.81423840     0.76200
H1595       H  0.76620693  0.86627775  0.77949027     0.10200
C1596       C  0.77258020  0.88567625  0.73401477     0.03900
C1597       C  0.78767661  0.88089779  0.71821347    -0.04900
C1598       C  0.78683336  0.86151698  0.70676766    -0.23300
C1599       C  0.76970581  0.84726586  0.71073571     0.13100
C1600       C  0.75449228  0.85229736  0.72621726    -0.12400
N1601       N  0.77458876  0.90513706  0.74584390     0.64800
H1602       H  0.80058873  0.89212421  0.71545548     0.12600
N1603       N  0.76753325  0.82747776  0.69944819     0.61400
H1604       H  0.74185922  0.84088008  0.72952828     0.08800
O1605       O  0.75267901  0.87159081  0.82661336    -0.40100
O1606       O  0.74804484  0.83835335  0.81707917    -0.39200
O1607       O  0.70312951  0.86627079  0.72175184    -0.39200
O1608       O  0.70611382  0.90025275  0.72900810    -0.36900
O1609       O  0.75391586  0.82602669  0.68463600    -0.37800
O1610       O  0.77487383  0.81057761  0.70771759    -0.34000
O1611       O  0.78850439  0.90649127  0.76038128    -0.35400
O1612       O  0.76643247  0.92204661  0.73842902    -0.39700
C1613       C  0.62780867  0.75103494  0.78003028    -0.13400
C1614       C  0.62301861  0.75894487  0.75959512     0.17000
C1615       C  0.61937045  0.78102369  0.75702413     0.03300
C1616       C  0.62252891  0.79496889  0.77432601    -0.11900
C1617       C  0.62914226  0.78737104  0.79450995    -0.03000
C1618       C  0.63056821  0.76488672  0.79751912     0.02500
C1619       C  0.62515695  0.74440065  0.74093273     0.09400
N1620       N  0.61300594  0.78960695  0.73680773     0.65700
H1621       H  0.62053276  0.81202817  0.77162922     0.18600
N1622       N  0.63561879  0.75577962  0.81789110     0.76200
H1623       H  0.63035391  0.73397148  0.78223846     0.10200
C1624       C  0.64498282  0.74236782  0.73078850     0.03900
C1625       C  0.64793164  0.72683902  0.71504310    -0.04900
C1626       C  0.63151239  0.71271961  0.70892321    -0.23300
C1627       C  0.61124991  0.71531503  0.71855715     0.13100
C1628       C  0.60832987  0.73101496  0.73453136    -0.12400
N1629       N  0.66270884  0.75528629  0.73710967     0.64800
H1630       H  0.66359521  0.72564554  0.70784655     0.12600
N1631       N  0.59372750  0.70180925  0.71298774     0.61400
H1632       H  0.59298900  0.73239143  0.74236949     0.08800
O1633       O  0.65432362  0.74937176  0.82148997    -0.40100
O1634       O  0.62069329  0.74938697  0.82978770    -0.39200
O1635       O  0.59358676  0.79359266  0.73353983    -0.39200
O1636       O  0.62681676  0.79782290  0.72467872    -0.36900
O1637       O  0.58987000  0.68548976  0.72426631    -0.37800
O1638       O  0.57945392  0.70891384  0.70065137    -0.34000
O1639       O  0.67641512  0.74760773  0.74974555    -0.35400
O1640       O  0.66718690  0.77185470  0.72644951    -0.39700
C1641       C  0.58712301  0.93592778  0.82228475    -0.13400
C1642       C  0.57758625  0.93174051  0.80236967     0.17000
C1643       C  0.58207895  0.91213716  0.79206173     0.03300
C1644       C  0.59574832  0.89733658  0.80169416    -0.11900
C1645       C  0.60528522  0.90140519  0.82163008    -0.03000
C1646       C  0.60081609  0.92102894  0.83199690     0.02500
C1647       C  0.56403263  0.94830822  0.79192026     0.09400
N1648       N  0.57274093  0.90684597  0.77184914     0.65700
H1649       H  0.59882488  0.88236851  0.79344078     0.18600
N1650       N  0.61105532  0.92677308  0.85161326     0.76200
H1651       H  0.58453186  0.95122641  0.83006578     0.10200
C1652       C  0.54634059  0.95754779  0.80229455     0.03900
C1653       C  0.53328512  0.97197757  0.79126488    -0.04900
C1654       C  0.53749301  0.97775620  0.76997624    -0.23300
C1655       C  0.55612041  0.96973603  0.76014173     0.13100
C1656       C  0.56905376  0.95516485  0.77114490    -0.12400
N1657       N  0.54094656  0.95202450  0.82379371     0.64800
H1658       H  0.51928328  0.97814110  0.79931664     0.12600
N1659       N  0.56268161  0.97678556  0.73939982     0.61400
H1660       H  0.58334515  0.94929010  0.76339849     0.08800
O1661       O  0.60041345  0.92670288  0.86871582    -0.40100
O1662       O  0.62835105  0.93705680  0.85094907    -0.39200
O1663       O  0.58403882  0.90768035  0.75519008    -0.39200
O1664       O  0.55549235  0.89647883  0.77141543    -0.36900
O1665       O  0.57443034  0.99312898  0.73790493    -0.37800
O1666       O  0.56169438  0.96392483  0.72386464    -0.34000
O1667       O  0.54511887  0.96512995  0.83860065    -0.35400
O1668       O  0.52732208  0.93752449  0.82703890    -0.39700
C1669       C  0.73602218  0.05586990  0.05805752    -0.13400
C1670       C  0.71427858  0.05863995  0.05402477     0.17000
C1671       C  0.70499183  0.04846495  0.03624273     0.03300
C1672       C  0.71745180  0.03556954  0.02300666    -0.11900
C1673       C  0.73929152  0.03245886  0.02699211    -0.03000
C1674       C  0.74860155  0.04298277  0.04482696     0.02500
C1675       C  0.70188348  0.07281494  0.06824170     0.09400
N1676       N  0.68281966  0.05061565  0.03168341     0.65700
H1677       H  0.70977349  0.02786847  0.00946090     0.18600
N1678       N  0.77061451  0.04068837  0.05006068     0.76200
H1679       H  0.74334729  0.06388770  0.07164331     0.10200
C1680       C  0.69816911  0.06722466  0.08970544     0.03900
C1681       C  0.68849987  0.08186455  0.10346382    -0.04900
C1682       C  0.68254066  0.10244415  0.09645325    -0.23300
C1683       C  0.68598265  0.10785839  0.07466359     0.13100
C1684       C  0.69546135  0.09297268  0.06083501    -0.12400
N1685       N  0.70433947  0.04676084  0.09784100     0.64800
H1686       H  0.68606785  0.07707467  0.11998730     0.12600
N1687       N  0.68041078  0.12840185  0.06630389     0.61400
H1688       H  0.69848521  0.09746322  0.04431370     0.08800
O1689       O  0.78319661  0.05583398  0.04570715    -0.40100
O1690       O  0.77600188  0.02711671  0.06402614    -0.39200
O1691       O  0.67701017  0.06244294  0.01636799    -0.39200
O1692       O  0.66999859  0.03688777  0.03901611    -0.36900
O1693       O  0.69453299  0.14274505  0.06506295    -0.37800
O1694       O  0.66357394  0.13031832  0.05542250    -0.34000
O1695       O  0.72115315  0.04517004  0.10881102    -0.35400
O1696       O  0.69089704  0.03172894  0.09821432    -0.39700
C1697       C  0.70955001  0.96537002  0.94934377    -0.13400
C1698       C  0.71752921  0.94453216  0.94703715     0.17000
C1699       C  0.73624722  0.93880167  0.95827828     0.03300
C1700       C  0.74662781  0.95389545  0.97111800    -0.11900
C1701       C  0.73866886  0.97471692  0.97337346    -0.03000
C1702       C  0.71977422  0.98037986  0.96249160     0.02500
C1703       C  0.70747588  0.92969784  0.93135051     0.09400
N1704       N  0.74491385  0.91769031  0.95693263     0.65700
H1705       H  0.76100984  0.94919061  0.97956163     0.18600
N1706       N  0.71156715  0.00167534  0.96337375     0.76200
H1707       H  0.69575606  0.97038691  0.94016076     0.10200
C1708       C  0.68546750  0.92499584  0.93145855     0.03900
C1709       C  0.67702418  0.91049668  0.91657989    -0.04900
C1710       C  0.68999189  0.90061109  0.90121062    -0.23300
C1711       C  0.71181942  0.90634364  0.90038298     0.13100
C1712       C  0.72019292  0.92072399  0.91531696    -0.12400
N1713       N  0.67145724  0.93450723  0.94669491     0.64800
H1714       H  0.66017290  0.90674354  0.91734498     0.12600
N1715       N  0.72572356  0.89816237  0.88427122     0.61400
H1716       H  0.73685894  0.92514985  0.91415186     0.08800
O1717       O  0.69503406  0.00533286  0.97418252    -0.40100
O1718       O  0.71750940  0.01517752  0.94957689    -0.39200
O1719       O  0.76180234  0.91471067  0.94645947    -0.39200
O1720       O  0.73899584  0.90367927  0.97021927    -0.36900
O1721       O  0.72869340  0.90887571  0.86739842    -0.37800
O1722       O  0.73835631  0.88315225  0.88888052    -0.34000
O1723       O  0.65947692  0.94960793  0.94077305    -0.35400
O1724       O  0.66701766  0.92438188  0.96359063    -0.39700
C1725       C  0.29648062  0.95523524  0.04312149    -0.13400
C1726       C  0.28483895  0.93852573  0.05235742     0.17000
C1727       C  0.26320603  0.93601905  0.04707462     0.03300
C1728       C  0.25355231  0.95022389  0.03270070    -0.11900
C1729       C  0.26509643  0.96711011  0.02333875    -0.03000
C1730       C  0.28688423  0.96955999  0.02880055     0.02500
C1731       C  0.29519436  0.92490956  0.06866264     0.09400
N1732       N  0.25086929  0.91904986  0.05609854     0.65700
H1733       H  0.23689221  0.94784542  0.02872261     0.18600
N1734       N  0.29929212  0.98703730  0.02088914     0.76200
H1735       H  0.31307234  0.95748641  0.04748467     0.10200
C1736       C  0.30834090  0.90767696  0.06288234     0.03900
C1737       C  0.31836349  0.89552494  0.07877207    -0.04900
C1738       C  0.31577547  0.90033668  0.10059446    -0.23300
C1739       C  0.30292311  0.91804546  0.10629456     0.13100
C1740       C  0.29270213  0.93001086  0.09032251    -0.12400
N1741       N  0.31154773  0.90220920  0.04094279     0.64800
H1742       H  0.32823134  0.88214373  0.07391546     0.12600
N1743       N  0.29939966  0.92368326  0.12814985     0.61400
H1744       H  0.28275728  0.94345703  0.09485973     0.08800
O1745       O  0.31280276  0.98365215  0.00637577    -0.40100
O1746       O  0.30059207  0.00398043  0.03182009    -0.39200
O1747       O  0.23816022  0.92306677  0.07117006    -0.39200
O1748       O  0.24917787  0.90158510  0.04608522    -0.36900
O1749       O  0.31030583  0.93849054  0.13649243    -0.37800
O1750       O  0.28251730  0.91761034  0.13721131    -0.34000
O1751       O  0.32852812  0.90791243  0.03180984    -0.35400
O1752       O  0.30024404  0.88771702  0.03259168    -0.39700
C1753       C  0.27241695  0.03726834  0.92950893    -0.13400
C1754       C  0.29296649  0.04364258  0.93563253     0.17000
C1755       C  0.30122247  0.03641335  0.95536630     0.03300
C1756       C  0.28871395  0.02359678  0.96868449    -0.11900
C1757       C  0.26789079  0.01773266  0.96292054    -0.03000
C1758       C  0.25990726  0.02432912  0.94279601     0.02500
C1759       C  0.30426934  0.05977941  0.92241811     0.09400
N1760       N  0.32216295  0.04212564  0.96230218     0.65700
H1761       H  0.29525224  0.01872339  0.98403256     0.18600
N1762       N  0.23933791  0.01788720  0.93540177     0.76200
H1763       H  0.26567408  0.04298828  0.91454564     0.10200
C1764       C  0.30783402  0.05665843  0.90037444     0.03900
C1765       C  0.31569869  0.07347907  0.88790208    -0.04900
C1766       C  0.32019260  0.09368888  0.89682562    -0.23300
C1767       C  0.31732302  0.09650685  0.91911657     0.13100
C1768       C  0.30930741  0.07966599  0.93154499    -0.12400
N1769       N  0.30348299  0.03654615  0.89034040     0.64800
H1770       H  0.31788199  0.07068398  0.87090411     0.12600
N1771       N  0.32227436  0.11628530  0.92948127     0.61400
H1772       H  0.30624879  0.08246516  0.94840450     0.08800
O1773       O  0.23781117  0.00187404  0.92317860    -0.40100
O1774       O  0.22418758  0.03108935  0.93616342    -0.39200
O1775       O  0.32432393  0.05609725  0.97673750    -0.39200
O1776       O  0.33732333  0.02943593  0.95863897    -0.36900
O1777       O  0.30741391  0.12910307  0.93387667    -0.37800
O1778       O  0.33996294  0.11828861  0.93888639    -0.34000
O1779       O  0.28708431  0.03461620  0.87878907    -0.35400
O1780       O  0.31834141  0.02312460  0.88842826    -0.39700
C1781       C  0.58460425  0.05986642  0.19007114    -0.13400
C1782       C  0.56693071  0.06843057  0.20066708     0.17000
C1783       C  0.56375903  0.09071164  0.20050903     0.03300
C1784       C  0.57843375  0.10404671  0.19029087    -0.11900
C1785       C  0.59669752  0.09573191  0.18031573    -0.03000
C1786       C  0.59954425  0.07323124  0.18003346     0.02500
C1787       C  0.55324299  0.05413176  0.21359321     0.09400
N1788       N  0.54585004  0.10009426  0.21093521     0.65700
H1789       H  0.57573988  0.12120486  0.19082431     0.18600
N1790       N  0.61751405  0.06363599  0.16991503     0.76200
H1791       H  0.58721419  0.04267740  0.19023269     0.10200
C1792       C  0.53950391  0.03913105  0.20404319     0.03900
C1793       C  0.52769671  0.02515088  0.21687970    -0.04900
C1794       C  0.52933483  0.02552900  0.23939051    -0.23300
C1795       C  0.54343640  0.04057559  0.24888220     0.13100
C1796       C  0.55502652  0.05471726  0.23592704    -0.12400
N1797       N  0.53714718  0.03805710  0.18132382     0.64800
H1798       H  0.51713672  0.01388231  0.20895641     0.12600
N1799       N  0.54665658  0.04156382  0.27150416     0.61400
H1800       H  0.56591702  0.06601239  0.24338609     0.08800
O1801       O  0.61546482  0.05595378  0.15134531    -0.40100
O1802       O  0.63333152  0.05824775  0.18116863    -0.39200
O1803       O  0.54828122  0.10853975  0.22912500    -0.39200
O1804       O  0.52947338  0.10450572  0.20007823    -0.36900
O1805       O  0.56226027  0.03178774  0.27965977    -0.37800
O1806       O  0.53766553  0.05615849  0.28209528    -0.34000
O1807       O  0.54630437  0.02327121  0.17115027    -0.35400
O1808       O  0.52225585  0.04830028  0.17243390    -0.39700
C1809       C  0.44356206  0.94641763  0.23683423    -0.13400
C1810       C  0.44860575  0.94195172  0.21549737     0.17000
C1811       C  0.46706645  0.95093772  0.20646962     0.03300
C1812       C  0.48017661  0.96404680  0.21897346    -0.11900
C1813       C  0.47510134  0.96880896  0.24037969    -0.03000
C1814       C  0.45636666  0.95989845  0.24925449     0.02500
C1815       C  0.43350421  0.92886326  0.20295515     0.09400
N1816       N  0.47213937  0.94793754  0.18439443     0.65700
H1817       H  0.49434982  0.97077112  0.21167187     0.18600
N1818       N  0.44924059  0.96530896  0.27025675     0.76200
H1819       H  0.42911783  0.93983583  0.24374598     0.10200
C1820       C  0.43838437  0.90783017  0.19665585     0.03900
C1821       C  0.42264715  0.89509751  0.18727207    -0.04900
C1822       C  0.40168991  0.90260295  0.18454258    -0.23300
C1823       C  0.39696449  0.92390085  0.19063453     0.13100
C1824       C  0.41292280  0.93679515  0.19954013    -0.12400
N1825       N  0.45861637  0.89848180  0.20130990     0.64800
H1826       H  0.42679882  0.87882259  0.18292540     0.12600
N1827       N  0.37592772  0.93240839  0.18903515     0.61400
H1828       H  0.40898934  0.95290703  0.20467326     0.08800
O1829       O  0.44792856  0.95072008  0.28417239    -0.40100
O1830       O  0.43858434  0.98222677  0.27277845    -0.39200
O1831       O  0.46541086  0.96135779  0.17087874    -0.39200
O1832       O  0.48764926  0.93613199  0.17948990    -0.36900
O1833       O  0.36380080  0.93151048  0.20508707    -0.37800
O1834       O  0.37140539  0.94491733  0.17382414    -0.34000
O1835       O  0.46121566  0.88904962  0.21899489    -0.35400
O1836       O  0.47110923  0.89435418  0.18608801    -0.39700
C1837       C  0.55162683  0.79667560  0.96698182    -0.13400
C1838       C  0.55838413  0.78619565  0.94834037     0.17000
C1839       C  0.55139066  0.76501749  0.94458497     0.03300
C1840       C  0.53812933  0.75481722  0.95934833    -0.11900
C1841       C  0.53155085  0.76508512  0.97819085    -0.03000
C1842       C  0.53839940  0.78638944  0.98189626     0.02500
C1843       C  0.57438029  0.79660162  0.93416169     0.09400
N1844       N  0.55765472  0.75352957  0.92585660     0.65700
H1845       H  0.53293375  0.73858348  0.95589740     0.18600
N1846       N  0.53331364  0.79734551  0.00128266     0.76200
H1847       H  0.55742662  0.81268809  0.97049176     0.10200
C1848       C  0.57105935  0.81691495  0.92475999     0.03900
C1849       C  0.58670182  0.82589169  0.91144934    -0.04900
C1850       C  0.60567073  0.81489434  0.90703757    -0.23300
C1851       C  0.60921831  0.79488279  0.91708506     0.13100
C1852       C  0.59375062  0.78614430  0.93057904    -0.12400
N1853       N  0.55155489  0.82821338  0.92779115     0.64800
H1854       H  0.58359704  0.84122177  0.90385926     0.12600
N1855       N  0.62863923  0.78337503  0.91419944     0.61400
H1856       H  0.59699962  0.77099091  0.93845649     0.08800
O1857       O  0.51952955  0.81201382  0.00098565    -0.40100
O1858       O  0.54575401  0.79584529  0.01710093    -0.39200
O1859       O  0.57125867  0.73877408  0.92754848    -0.39200
O1860       O  0.54594082  0.75421379  0.90943896    -0.36900
O1861       O  0.64349276  0.78574194  0.92762753    -0.37800
O1862       O  0.62893504  0.76745231  0.90177336    -0.34000
O1863       O  0.55114173  0.84406252  0.94030324    -0.35400
O1864       O  0.53658730  0.82564366  0.91453211    -0.39700
C1865       C  0.45268451  0.76640151  0.06509093    -0.13400
C1866       C  0.44604297  0.78687132  0.05886342     0.17000
C1867       C  0.45434853  0.79599608  0.04004860     0.03300
C1868       C  0.46902716  0.78452362  0.02775118    -0.11900
C1869       C  0.47572720  0.76391481  0.03383790    -0.03000
C1870       C  0.46743487  0.75489915  0.05287961     0.02500
C1871       C  0.43111752  0.79865860  0.07280468     0.09400
N1872       N  0.44820374  0.81696317  0.03333203     0.65700
H1873       H  0.47505581  0.79178564  0.01317508     0.18600
N1874       N  0.47461964  0.73464952  0.06069982     0.76200
H1875       H  0.44661614  0.75943840  0.07980356     0.10200
C1876       C  0.40897676  0.79652378  0.07031573     0.03900
C1877       C  0.39524612  0.80633036  0.08491138    -0.04900
C1878       C  0.40312835  0.81810549  0.10241352    -0.23300
C1879       C  0.42545805  0.82040303  0.10472789     0.13100
C1880       C  0.43916351  0.81074801  0.08989543    -0.12400
N1881       N  0.40020822  0.78378844  0.05347664     0.64800
H1882       H  0.37823190  0.80412063  0.08284049     0.12600
N1883       N  0.43453210  0.83262260  0.12180510     0.61400
H1884       H  0.45624855  0.81236154  0.09195755     0.08800
O1885       O  0.46252000  0.71855196  0.05934613    -0.40100
O1886       O  0.49049015  0.73399378  0.07310115    -0.39200
O1887       O  0.46069102  0.83248080  0.03657370    -0.39200
O1888       O  0.43320120  0.81904315  0.02003416    -0.36900
O1889       O  0.44142671  0.82305918  0.13821268    -0.37800
O1890       O  0.44026084  0.85168888  0.11832814    -0.34000
O1891       O  0.39465424  0.76474395  0.05733040    -0.35400
O1892       O  0.39378033  0.79278277  0.03657123    -0.39700
C1893       C  0.53255740  0.20010604  0.04794963    -0.13400
C1894       C  0.54577894  0.21174788  0.06184137     0.17000
C1895       C  0.54312893  0.23411276  0.06318766     0.03300
C1896       C  0.52772455  0.24435705  0.05068975    -0.11900
C1897       C  0.51443923  0.23291838  0.03655930    -0.03000
C1898       C  0.51701195  0.21034534  0.03536540     0.02500
C1899       C  0.56295234  0.20070933  0.07406800     0.09400
N1900       N  0.55565186  0.24669086  0.07759732     0.65700
H1901       H  0.52621164  0.26159710  0.05226681     0.18600
N1902       N  0.50442285  0.19750320  0.02126336     0.76200
H1903       H  0.53461919  0.18290547  0.04648665     0.10200
C1904       C  0.55852275  0.18440512  0.08905786     0.03900
C1905       C  0.57502309  0.17574511  0.10143500    -0.04900
C1906       C  0.59619822  0.18268394  0.09907881    -0.23300
C1907       C  0.60078603  0.19806003  0.08309870     0.13100
C1908       C  0.58420104  0.20691551  0.07090687    -0.12400
N1909       N  0.53728251  0.17701194  0.09254560     0.64800
H1910       H  0.57111015  0.16364181  0.11329405     0.12600
N1911       N  0.62195989  0.20564554  0.07966068     0.61400
H1912       H  0.58794583  0.21901849  0.05899268     0.08800
O1913       O  0.48872990  0.18730726  0.02869267    -0.40100
O1914       O  0.51199802  0.19210936  0.00337452    -0.39200
O1915       O  0.57068608  0.25794510  0.07031205    -0.39200
O1916       O  0.54852125  0.25062683  0.09603980    -0.36900
O1917       O  0.63264102  0.19810806  0.06434567    -0.37800
O1918       O  0.62779420  0.22298389  0.08824243    -0.34000
O1919       O  0.53146736  0.15946296  0.08438017    -0.35400
O1920       O  0.52662717  0.18483116  0.10773185    -0.39700
C1921       C  0.42732109  0.19566262  0.91814628    -0.13400
C1922       C  0.41733108  0.20129376  0.93732873     0.17000
C1923       C  0.39522277  0.19851110  0.93933766     0.03300
C1924       C  0.38347952  0.19021001  0.92223420    -0.11900
C1925       C  0.39326576  0.18479058  0.90273238    -0.03000
C1926       C  0.41557824  0.18760031  0.90083437     0.02500
C1927       C  0.42985274  0.21231129  0.95404644     0.09400
N1928       N  0.38444460  0.20413594  0.95863615     0.65700
H1929       H  0.36643785  0.18826490  0.92426531     0.18600
N1930       N  0.42661984  0.18264066  0.88150605     0.76200
H1931       H  0.44433313  0.19816728  0.91637274     0.10200
C1932       C  0.44568796  0.20172189  0.96589545     0.03900
C1933       C  0.45829425  0.21323849  0.98033818    -0.04900
C1934       C  0.45571017  0.23545657  0.98320576    -0.23300
C1935       C  0.43960571  0.24595618  0.97116745     0.13100
C1936       C  0.42688519  0.23427566  0.95693342    -0.12400
N1937       N  0.44910006  0.17924941  0.96353801     0.64800
H1938       H  0.47039760  0.20455715  0.98918627     0.12600
N1939       N  0.43570138  0.26837085  0.97301441     0.61400
H1940       H  0.41484624  0.24259368  0.94759726     0.08800
O1941       O  0.43698152  0.16539485  0.88029836    -0.40100
O1942       O  0.43028827  0.19739697  0.86819271    -0.39200
O1943       O  0.37395733  0.22133321  0.95937389    -0.39200
O1944       O  0.38137188  0.18998044  0.97272422    -0.36900
O1945       O  0.44504161  0.28103231  0.96036339    -0.37800
O1946       O  0.41882602  0.27441427  0.98207449    -0.34000
O1947       O  0.46471472  0.17279640  0.95266051    -0.35400
O1948       O  0.44005910  0.16647686  0.97628061    -0.39700
C1949       C  0.13634201  0.75387303  0.27578897    -0.13400
C1950       C  0.12632970  0.76050299  0.25685578     0.17000
C1951       C  0.11769274  0.78127097  0.25567623     0.03300
C1952       C  0.12059469  0.79546421  0.27274511    -0.11900
C1953       C  0.13171421  0.78931050  0.29130231    -0.03000
C1954       C  0.13899843  0.76793604  0.29302273     0.02500
C1955       C  0.12641875  0.74575551  0.23833241     0.09400
N1956       N  0.10552752  0.78806252  0.23755472     0.65700
H1957       H  0.11428568  0.81156921  0.27131381     0.18600
N1958       N  0.15019725  0.76051090  0.31152395     0.76200
H1959       H  0.14287152  0.73782725  0.27690466     0.10200
C1960       C  0.13907472  0.74999004  0.22020962     0.03900
C1961       C  0.14106750  0.73450161  0.20424061    -0.04900
C1962       C  0.13136663  0.71433592  0.20619821    -0.23300
C1963       C  0.11841030  0.71018902  0.22420989     0.13100
C1964       C  0.11594033  0.72596656  0.23997517    -0.12400
N1965       N  0.15177422  0.76894797  0.21874939     0.64800
H1966       H  0.15147605  0.73785447  0.19080489     0.12600
N1967       N  0.10765515  0.69017686  0.22678900     0.61400
H1968       H  0.10631905  0.72250234  0.25396144     0.08800
O1969       O  0.17027936  0.76035884  0.31141964    -0.40100
O1970       O  0.14039366  0.74947995  0.32528088    -0.39200
O1971       O  0.08573261  0.78462563  0.23741721    -0.39200
O1972       O  0.11301907  0.80230889  0.22536668    -0.36900
O1973       O  0.11550047  0.67621418  0.23909293    -0.37800
O1974       O  0.08833896  0.68871564  0.22140127    -0.34000
O1975       O  0.17005402  0.76898796  0.22716464    -0.35400
O1976       O  0.14758397  0.78253737  0.20439470    -0.39700
C1977       C  0.24777159  0.72392330  0.11679720    -0.13400
C1978       C  0.24223040  0.74550332  0.11882975     0.17000
C1979       C  0.22063968  0.75124535  0.11986531     0.03300
C1980       C  0.20511620  0.73525320  0.12112898    -0.11900
C1981       C  0.21073426  0.71345419  0.12137838    -0.03000
C1982       C  0.23229336  0.70786405  0.11779898     0.02500
C1983       C  0.25927167  0.76126613  0.12275071     0.09400
N1984       N  0.21432389  0.77315556  0.12125473     0.65700
H1985       H  0.18866835  0.74006937  0.12324133     0.18600
N1986       N  0.23896840  0.68608025  0.11592541     0.76200
H1987       H  0.26441250  0.71946376  0.11543397     0.10200
C1988       C  0.27056668  0.76077085  0.14219461     0.03900
C1989       C  0.28699619  0.77529277  0.14579356    -0.04900
C1990       C  0.29252081  0.79075410  0.13041907    -0.23300
C1991       C  0.28137862  0.79100635  0.11066584     0.13100
C1992       C  0.26479848  0.77630494  0.10706757    -0.12400
N1993       N  0.26504732  0.74599007  0.15877397     0.64800
H1994       H  0.29527614  0.77460587  0.16105040     0.12600
N1995       N  0.28616502  0.80634111  0.09439395     0.61400
H1996       H  0.25620224  0.77661609  0.09197509     0.08800
O1997       O  0.24808187  0.67715950  0.13158323    -0.40100
O1998       O  0.24064991  0.67791009  0.09753794    -0.39200
O1999       O  0.20686945  0.78230151  0.10485906    -0.39200
O2000       O  0.21138369  0.78143470  0.13942423    -0.36900
O2001       O  0.29810219  0.80099539  0.07909612    -0.37800
O2002       O  0.27459681  0.82273336  0.09249398    -0.34000
O2003       O  0.27659502  0.72978617  0.16198581    -0.35400
O2004       O  0.25172489  0.75146656  0.17281434    -0.39700
C2005       C  0.24815970  0.63724922  0.21913293    -0.13400
C2006       C  0.24171333  0.62779302  0.23841837     0.17000
C2007       C  0.22012524  0.62196174  0.24086290     0.03300
C2008       C  0.20550875  0.62612231  0.22438771    -0.11900
C2009       C  0.21183003  0.63608194  0.20523901    -0.03000
C2010       C  0.23360930  0.64141325  0.20263470     0.02500
C2011       C  0.25701179  0.62736191  0.25665501     0.09400
N2012       N  0.21271910  0.61196933  0.26004560     0.65700
H2013       H  0.18896705  0.62168385  0.22675206     0.18600
N2014       N  0.24106605  0.65252238  0.18409854     0.76200
H2015       H  0.26448519  0.64264559  0.21727393     0.10200
C2016       C  0.27760342  0.61850605  0.25473251     0.03900
C2017       C  0.29272763  0.62184836  0.27090002    -0.04900
C2018       C  0.28783531  0.63382072  0.28922922    -0.23300
C2019       C  0.26699358  0.64205166  0.29149746     0.13100
C2020       C  0.25195692  0.63882322  0.27525525    -0.12400
N2021       N  0.28350062  0.60618485  0.23643110     0.64800
H2022       H  0.30854305  0.61515377  0.26895829     0.12600
N2023       N  0.26126303  0.65517292  0.30931196     0.61400
H2024       H  0.23652575  0.64646807  0.27668978     0.08800
O2025       O  0.24190508  0.67271748  0.18435840    -0.40100
O2026       O  0.25156519  0.64241946  0.17020084    -0.39200
O2027       O  0.20166036  0.62265287  0.27304600    -0.39200
O2028       O  0.21262855  0.59179994  0.26126919    -0.36900
O2029       O  0.26350892  0.67522185  0.30801831    -0.37800
O2030       O  0.24995048  0.64738876  0.32406693    -0.34000
O2031       O  0.29583151  0.61432615  0.22272701    -0.35400
O2032       O  0.28130544  0.58610382  0.23702883    -0.39700
C2033       C  0.85820474  0.24623612  0.27265791    -0.13400
C2034       C  0.87435615  0.24152631  0.25799036     0.17000
C2035       C  0.88645720  0.22271954  0.26070390     0.03300
C2036       C  0.88168929  0.20867690  0.27756864    -0.11900
C2037       C  0.86489916  0.21298289  0.29170854    -0.03000
C2038       C  0.85339652  0.23224972  0.28941252     0.02500
C2039       C  0.87756384  0.25662090  0.24001688     0.09400
N2040       N  0.90370462  0.21775489  0.24672178     0.65700
H2041       H  0.89076969  0.19398907  0.27922071     0.18600
N2042       N  0.83715264  0.23813323  0.30425477     0.76200
H2043       H  0.84901443  0.26085042  0.27089844     0.10200
C2044       C  0.87055310  0.25162861  0.21916632     0.03900
C2045       C  0.86888289  0.26784948  0.20382636    -0.04900
C2046       C  0.87332971  0.28930117  0.20896996    -0.23300
C2047       C  0.88168786  0.29404267  0.22949572     0.13100
C2048       C  0.88382660  0.27767329  0.24469618    -0.12400
N2049       N  0.86270310  0.23078643  0.21394315     0.64800
H2050       H  0.86231630  0.26377432  0.18826327     0.12600
N2051       N  0.88737233  0.31539224  0.23549269     0.61400
H2052       H  0.88919621  0.28167188  0.26073722     0.08800
O2053       O  0.81786910  0.23577021  0.29907148    -0.40100
O2054       O  0.84184635  0.25016910  0.31979204    -0.39200
O2055       O  0.92224350  0.22370751  0.25178571    -0.39200
O2056       O  0.90144949  0.20295914  0.23315749    -0.36900
O2057       O  0.87452774  0.32634310  0.24644763    -0.37800
O2058       O  0.90664041  0.32104888  0.23461414    -0.34000
O2059       O  0.84321190  0.22676416  0.21669918    -0.35400
O2060       O  0.87327649  0.21918776  0.20133361    -0.39700
C2061       C  0.77585958  0.25279814  0.12505905    -0.13400
C2062       C  0.75471575  0.25973742  0.12691020     0.17000
C2063       C  0.75071215  0.28177850  0.12972492     0.03300
C2064       C  0.76763961  0.29611001  0.13169058    -0.11900
C2065       C  0.78889490  0.28915391  0.13119990    -0.03000
C2066       C  0.79293116  0.26720938  0.12710869     0.02500
C2067       C  0.73741730  0.24370538  0.12948512     0.09400
N2068       N  0.72951017  0.28986000  0.13145892     0.65700
H2069       H  0.76389811  0.31282948  0.13452104     0.18600
N2070       N  0.81411446  0.25907160  0.12567741     0.76200
H2071       H  0.77923527  0.23585998  0.12323291     0.10200
C2072       C  0.73307220  0.22761803  0.11420048     0.03900
C2073       C  0.71711308  0.21238196  0.11822195    -0.04900
C2074       C  0.70554728  0.21259538  0.13745601    -0.23300
C2075       C  0.71000318  0.22875758  0.15267796     0.13100
C2076       C  0.72587197  0.24385383  0.14862867    -0.12400
N2077       N  0.74476190  0.22639244  0.09465509     0.64800
H2078       H  0.71410207  0.20000682  0.10639286     0.12600
N2079       N  0.69839587  0.23035899  0.17225556     0.61400
H2080       H  0.72949691  0.25563188  0.16088419     0.08800
O2081       O  0.82229120  0.25630622  0.10746080    -0.40100
O2082       O  0.82231084  0.24997144  0.14174110    -0.39200
O2083       O  0.72256448  0.29519467  0.14962961    -0.39200
O2084       O  0.72045518  0.29710025  0.11493146    -0.36900
O2085       O  0.68304936  0.24330520  0.17345753    -0.37800
O2086       O  0.70641573  0.22294120  0.18924730    -0.34000
O2087       O  0.75907896  0.21238012  0.09273791    -0.35400
O2088       O  0.73735002  0.23522464  0.07807288    -0.39700
C2089       C  0.75189451  0.37258936  0.22527769    -0.13400
C2090       C  0.75872941  0.37150316  0.24661933     0.17000
C2091       C  0.78069222  0.36999426  0.25097613     0.03300
C2092       C  0.79520170  0.36843041  0.23415097    -0.11900
C2093       C  0.78838701  0.36788823  0.21270604    -0.03000
C2094       C  0.76639330  0.37074969  0.20832771     0.02500
C2095       C  0.74278993  0.36787427  0.26372035     0.09400
N2096       N  0.78847920  0.36898557  0.27246361     0.65700
H2097       H  0.81192528  0.36660745  0.23810511     0.18600
N2098       N  0.75824927  0.37064929  0.18694540     0.76200
H2099       H  0.73500156  0.37343512  0.22170754     0.10200
C2100       C  0.72688433  0.38289710  0.26884293     0.03900
C2101       C  0.71157129  0.37790898  0.28438537    -0.04900
C2102       C  0.71133101  0.35783938  0.29462706    -0.23300
C2103       C  0.72714232  0.34265044  0.28902533     0.13100
C2104       C  0.74262863  0.34790370  0.27389227    -0.12400
N2105       N  0.72592662  0.40318934  0.25833532     0.64800
H2106       H  0.69947703  0.38971747  0.28807632     0.12600
N2107       N  0.72767687  0.32166543  0.29818113     0.61400
H2108       H  0.75435102  0.33592212  0.26955139     0.08800
O2109       O  0.75374520  0.38819853  0.17800167    -0.40100
O2110       O  0.75096533  0.35345001  0.17922894    -0.39200
O2111       O  0.79403702  0.35112965  0.28010760    -0.39200
O2112       O  0.79483469  0.38595041  0.28140333    -0.36900
O2113       O  0.74096515  0.31764065  0.31281261    -0.37800
O2114       O  0.71922979  0.30632651  0.28809775    -0.34000
O2115       O  0.71261968  0.40592187  0.24342102    -0.35400
O2116       O  0.73410271  0.41933020  0.26731233    -0.39700
C2117       C  0.89564686  0.73111973  0.76825004    -0.13400
C2118       C  0.87955177  0.73514640  0.75321538     0.17000
C2119       C  0.86195640  0.72131345  0.75184368     0.03300
C2120       C  0.85990349  0.70464287  0.76641973    -0.11900
C2121       C  0.87506266  0.70138464  0.78265804    -0.03000
C2122       C  0.89366779  0.71415438  0.78288972     0.02500
C2123       C  0.88056107  0.75411653  0.73934670     0.09400
N2124       N  0.84566780  0.72439964  0.73612161     0.65700
H2125       H  0.84582469  0.69457864  0.76541811     0.18600
N2126       N  0.91019039  0.71073429  0.79824697     0.76200
H2127       H  0.90948359  0.74152474  0.76898156     0.10200
C2128       C  0.86898202  0.77265170  0.74456095     0.03900
C2129       C  0.86630980  0.78865786  0.72924756    -0.04900
C2130       C  0.87527813  0.78666944  0.70884683    -0.23300
C2131       C  0.88825121  0.76887429  0.70416950     0.13100
C2132       C  0.89064392  0.75261868  0.71944348    -0.12400
N2133       N  0.85918297  0.77506501  0.76504069     0.64800
H2134       H  0.85650385  0.80243233  0.73306726     0.12600
N2135       N  0.89747377  0.76614775  0.68348054     0.61400
H2136       H  0.89947939  0.73827529  0.71536449     0.08800
O2137       O  0.91094860  0.72226395  0.81480918    -0.40100
O2138       O  0.92639696  0.70011708  0.79290093    -0.39200
O2139       O  0.84601243  0.71337023  0.71921293    -0.39200
O2140       O  0.82867376  0.73374039  0.74135868    -0.36900
O2141       O  0.91667548  0.77132875  0.68061286    -0.37800
O2142       O  0.88835544  0.75414549  0.67003313    -0.34000
O2143       O  0.86830289  0.78636482  0.77907609    -0.35400
O2144       O  0.83970531  0.77063164  0.76717441    -0.39700
C2145       C  0.76664929  0.72378208  0.88518817    -0.13400
C2146       C  0.76251603  0.73902759  0.86926770     0.17000
C2147       C  0.77432899  0.73860623  0.85017040     0.03300
C2148       C  0.78941231  0.72257192  0.84694107    -0.11900
C2149       C  0.79343947  0.70690570  0.86260882    -0.03000
C2150       C  0.78217984  0.70794490  0.88219418     0.02500
C2151       C  0.74593873  0.75540765  0.87261481     0.09400
N2152       N  0.77091552  0.75414919  0.83370933     0.65700
H2153       H  0.79806902  0.72244395  0.83192495     0.18600
N2154       N  0.78599798  0.69298959  0.89906747     0.76200
H2155       H  0.75782068  0.72425980  0.90009707     0.10200
C2156       C  0.72419477  0.75000669  0.87231432     0.03900
C2157       C  0.70889594  0.76619983  0.87232927    -0.04900
C2158       C  0.71483012  0.78791317  0.87298276    -0.23300
C2159       C  0.73663387  0.79310468  0.87571289     0.13100
C2160       C  0.75194249  0.77686707  0.87505463    -0.12400
N2161       N  0.71740291  0.72821440  0.87089079     0.64800
H2162       H  0.69228163  0.76164988  0.87080480     0.12600
N2163       N  0.74354587  0.81463872  0.87924766     0.61400
H2164       H  0.76869034  0.78105675  0.87615236     0.08800
O2165       O  0.77299937  0.67784709  0.90199353    -0.40100
O2166       O  0.79872274  0.69800515  0.91390799    -0.39200
O2167       O  0.78380990  0.76954586  0.83177401    -0.39200
O2168       O  0.75829036  0.74990979  0.81854989    -0.36900
O2169       O  0.74537079  0.82141255  0.89819371    -0.37800
O2170       O  0.75219041  0.82493891  0.86420674    -0.34000
O2171       O  0.71136677  0.71867712  0.88763143    -0.35400
O2172       O  0.71266956  0.72047564  0.85284129    -0.39700
C2173       C  0.77724457  0.62572097  0.74969120    -0.13400
C2174       C  0.75836979  0.61650465  0.75719504     0.17000
C2175       C  0.75774219  0.60784822  0.77802075     0.03300
C2176       C  0.77552845  0.61002890  0.79150971    -0.11900
C2177       C  0.79372958  0.62106694  0.78455360    -0.03000
C2178       C  0.79481073  0.62819858  0.76316453     0.02500
C2179       C  0.73913693  0.61920079  0.74385920     0.09400
N2180       N  0.73878504  0.59819844  0.78614094     0.65700
H2181       H  0.77451287  0.60450448  0.80795945     0.18600
N2182       N  0.81340480  0.63859191  0.75507551     0.76200
H2183       H  0.77790212  0.63220510  0.73356424     0.10200
C2184       C  0.72960222  0.63950389  0.74253333     0.03900
C2185       C  0.71485433  0.64379936  0.72644641    -0.04900
C2186       C  0.70919376  0.62821977  0.71123991    -0.23300
C2187       C  0.71775121  0.60731540  0.71342304     0.13100
C2188       C  0.73275799  0.60306607  0.72962825    -0.12400
N2189       N  0.73574466  0.65639603  0.75669101     0.64800
H2190       H  0.70820869  0.65981125  0.72562041     0.12600
N2191       N  0.71228143  0.59055953  0.69883926     0.61400
H2192       H  0.74022117  0.58742167  0.73044434     0.08800
O2193       O  0.81351930  0.65870805  0.75311805    -0.40100
O2194       O  0.82703979  0.62766223  0.74511823    -0.39200
O2195       O  0.73751522  0.57805489  0.78719168    -0.39200
O2196       O  0.72567924  0.60948638  0.79641040    -0.36900
O2197       O  0.72409331  0.58702276  0.68292784    -0.37800
O2198       O  0.69889941  0.57654907  0.70443176    -0.34000
O2199       O  0.74883940  0.67036388  0.75035893    -0.35400
O2200       O  0.72470714  0.66002695  0.77313058    -0.39700
C2201       C  0.06331325  0.73179240  0.03314255    -0.13400
C2202       C  0.05536919  0.71684439  0.04792584     0.17000
C2203       C  0.03329407  0.71269092  0.04832650     0.03300
C2204       C  0.01973765  0.72325740  0.03394587    -0.11900
C2205       C  0.02757074  0.73867266  0.01964052    -0.03000
C2206       C  0.04965079  0.74283338  0.01918205     0.02500
C2207       C  0.07016678  0.70744296  0.06398056     0.09400
N2208       N  0.02411911  0.69936782  0.06445949     0.65700
H2209       H  0.00274706  0.72021230  0.03475382     0.18600
N2210       N  0.05851636  0.75789252  0.00444754     0.76200
H2211       H  0.08024213  0.73522711  0.03274923     0.10200
C2212       C  0.07546536  0.68550397  0.06424893     0.03900
C2213       C  0.08995083  0.67769868  0.07946955    -0.04900
C2214       C  0.09968692  0.69133500  0.09452190    -0.23300
C2215       C  0.09433781  0.71340837  0.09410169     0.13100
C2216       C  0.07973099  0.72111273  0.07896452    -0.12400
N2217       N  0.06721660  0.67107702  0.04854258     0.64800
H2218       H  0.09389973  0.66079722  0.07914154     0.12600
N2219       N  0.10340121  0.72832055  0.10889944     0.61400
H2220       H  0.07583184  0.73804138  0.07887573     0.08800
O2221       O  0.06633462  0.75117540  0.98712423    -0.40100
O2222       O  0.06338664  0.77639036  0.01096377    -0.39200
O2223       O  0.01898792  0.70766297  0.08211840    -0.39200
O2224       O  0.01595214  0.68167352  0.05915340    -0.36900
O2225       O  0.11909128  0.73958810  0.10319278    -0.37800
O2226       O  0.09289562  0.73373104  0.12520627    -0.34000
O2227       O  0.07775652  0.66799133  0.03166154    -0.35400
O2228       O  0.05361906  0.65728490  0.05412916    -0.39700
C2229       C  0.93592341  0.69423666  0.90779322    -0.13400
C2230       C  0.92738335  0.69966884  0.92774703     0.17000
C2231       C  0.90581067  0.69527103  0.93189840     0.03300
C2232       C  0.89326208  0.68545026  0.91623495    -0.11900
C2233       C  0.90157346  0.68019719  0.89601095    -0.03000
C2234       C  0.92328309  0.68479779  0.89186507     0.02500
C2235       C  0.94065471  0.71190110  0.94305986     0.09400
N2236       N  0.89631684  0.70083296  0.95188898     0.65700
H2237       H  0.87669605  0.68227561  0.91995560     0.18600
N2238       N  0.93262312  0.68087906  0.87141322     0.76200
H2239       H  0.95239025  0.69812418  0.90424746     0.10200
C2240       C  0.95905505  0.70311171  0.95239699     0.03900
C2241       C  0.97199735  0.71580157  0.96553216    -0.04900
C2242       C  0.96727076  0.73751552  0.96944855    -0.23300
C2243       C  0.94873520  0.74621074  0.95983913     0.13100
C2244       C  0.93566383  0.73334288  0.94698362    -0.12400
N2245       N  0.96482517  0.68130912  0.94871850     0.64800
H2246       H  0.98609332  0.70850600  0.97242709     0.12600
N2247       N  0.94283279  0.76804324  0.96262266     0.61400
H2248       H  0.92172832  0.74038289  0.93947028     0.08800
O2249       O  0.94421586  0.66460582  0.86887092    -0.40100
O2250       O  0.93339477  0.69585536  0.85785426    -0.39200
O2251       O  0.88498004  0.71745371  0.95302304    -0.39200
O2252       O  0.89470639  0.68673684  0.96627833    -0.36900
O2253       O  0.92767686  0.77233540  0.97510854    -0.37800
O2254       O  0.94777084  0.78135568  0.94824484    -0.34000
O2255       O  0.97908679  0.67709561  0.93518321    -0.35400
O2256       O  0.95956313  0.66723483  0.96221803    -0.39700
C2257       C  0.11447558  0.25877402  0.78164783    -0.13400
C2258       C  0.12788398  0.25834031  0.76375294     0.17000
C2259       C  0.14235649  0.27518986  0.76036898     0.03300
C2260       C  0.14395635  0.29160891  0.77533262    -0.11900
C2261       C  0.13144142  0.29166970  0.79390905    -0.03000
C2262       C  0.11606296  0.27536275  0.79675730     0.02500
C2263       C  0.12738053  0.24000016  0.74896132     0.09400
N2264       N  0.15590753  0.27561435  0.74202510     0.65700
H2265       H  0.15563272  0.30417078  0.77266693     0.18600
N2266       N  0.10297047  0.27460042  0.81539814     0.76200
H2267       H  0.10319611  0.24584351  0.78421383     0.10200
C2268       C  0.14262049  0.22363029  0.75062410     0.03900
C2269       C  0.14422557  0.20841430  0.73441227    -0.04900
C2270       C  0.13079451  0.20903842  0.71639557    -0.23300
C2271       C  0.11433692  0.22442912  0.71565365     0.13100
C2272       C  0.11293176  0.23991875  0.73184581    -0.12400
N2273       N  0.15694283  0.22255688  0.76841117     0.64800
H2274       H  0.15657431  0.19634298  0.73567502     0.12600
N2275       N  0.09975939  0.22538084  0.69810749     0.61400
H2276       H  0.10103157  0.25243657  0.73063466     0.08800
O2277       O  0.10813680  0.26242835  0.83067826    -0.40100
O2278       O  0.08415685  0.28155717  0.81431913    -0.39200
O2279       O  0.15081249  0.28711877  0.72621903    -0.39200
O2280       O  0.17487642  0.26924969  0.74379005    -0.36900
O2281       O  0.08169059  0.21672630  0.69994374    -0.37800
O2282       O  0.10285713  0.23878406  0.68330828    -0.34000
O2283       O  0.15256446  0.21032187  0.78387470    -0.35400
O2284       O  0.17577948  0.22923945  0.76626766    -0.39700
C2285       C  0.25402079  0.22708820  0.85589143    -0.13400
C2286       C  0.25572918  0.23871455  0.87494338     0.17000
C2287       C  0.27084700  0.23253017  0.89041194     0.03300
C2288       C  0.28493316  0.21571257  0.88596567    -0.11900
C2289       C  0.28422349  0.20501845  0.86619649    -0.03000
C2290       C  0.26795161  0.21031372  0.85140800     0.02500
C2291       C  0.24229410  0.25794129  0.87729508     0.09400
N2292       N  0.27274289  0.24377498  0.91020836     0.65700
H2293       H  0.29715587  0.21173799  0.89761477     0.18600
N2294       N  0.26522783  0.19877516  0.83182137     0.76200
H2295       H  0.24202317  0.23144647  0.84412410     0.10200
C2296       C  0.24678182  0.27632072  0.86503321     0.03900
C2297       C  0.23172511  0.29260293  0.86337995    -0.04900
C2298       C  0.21201629  0.29098425  0.87366881    -0.23300
C2299       C  0.20777619  0.27303155  0.88674902     0.13100
C2300       C  0.22302242  0.25666840  0.88852803    -0.12400
N2301       N  0.26603342  0.27802297  0.85302426     0.64800
H2302       H  0.23512934  0.30629411  0.85320148     0.12600
N2303       N  0.18737374  0.27008478  0.89636111     0.61400
H2304       H  0.21922373  0.24228748  0.89752686     0.08800
O2305       O  0.27134555  0.20712121  0.81448502    -0.40100
O2306       O  0.25242114  0.18319085  0.83124587    -0.39200
O2307       O  0.26531120  0.23546011  0.92702649    -0.39200
O2308       O  0.28576195  0.25911260  0.91170122    -0.36900
O2309       O  0.17309833  0.26005788  0.88622642    -0.37800
O2310       O  0.18527892  0.27300396  0.91622522    -0.34000
O2311       O  0.26585216  0.27359392  0.83331685    -0.35400
O2312       O  0.28152553  0.28834479  0.86074873    -0.39700
C2313       C  0.23047806  0.39323260  0.76627077    -0.13400
C2314       C  0.24715832  0.37836654  0.76500338     0.17000
C2315       C  0.24830280  0.36172208  0.78015635     0.03300
C2316       C  0.23219969  0.35936101  0.79528320    -0.11900
C2317       C  0.21481696  0.37344769  0.79598535    -0.03000
C2318       C  0.21447594  0.39112754  0.78182807     0.02500
C2319       C  0.26234013  0.37923822  0.74694719     0.09400
N2320       N  0.26509153  0.34632806  0.77967809     0.65700
H2321       H  0.23307719  0.34594001  0.80631446     0.18600
N2322       N  0.19769585  0.40650732  0.78235406     0.76200
H2323       H  0.22964693  0.40628223  0.75481199     0.10200
C2324       C  0.25561328  0.37408067  0.72601405     0.03900
C2325       C  0.27060715  0.37187981  0.70971724    -0.04900
C2326       C  0.29222445  0.37528709  0.71379527    -0.23300
C2327       C  0.29892628  0.38180268  0.73428101     0.13100
C2328       C  0.28398388  0.38349492  0.75082973    -0.12400
N2329       N  0.23377602  0.36971397  0.72133186     0.64800
H2330       H  0.26543449  0.36671486  0.69396579     0.12600
N2331       N  0.32099519  0.38525707  0.73873479     0.61400
H2332       H  0.28931331  0.38752920  0.76683788     0.08800
O2333       O  0.18286405  0.40528597  0.76875273    -0.40100
O2334       O  0.20059352  0.42387184  0.79227537    -0.39200
O2335       O  0.28038187  0.34816806  0.79268610    -0.39200
O2336       O  0.26199139  0.32859427  0.77050275    -0.36900
O2337       O  0.32941770  0.40300449  0.73403421    -0.37800
O2338       O  0.33271731  0.36955181  0.74345570    -0.34000
O2339       O  0.22281152  0.38377939  0.71190656    -0.35400
O2340       O  0.22720397  0.35061124  0.72173711    -0.39700
C2341       C  0.95150507  0.52945120  0.79125810    -0.13400
C2342       C  0.94070358  0.54510286  0.77946515     0.17000
C2343       C  0.94446003  0.54675940  0.75731545     0.03300
C2344       C  0.95845371  0.53255478  0.74728589    -0.11900
C2345       C  0.96950616  0.51679780  0.75896133    -0.03000
C2346       C  0.96604299  0.51558257  0.78140445     0.02500
C2347       C  0.92714258  0.56083601  0.79079278     0.09400
N2348       N  0.93430594  0.56294792  0.74478198     0.65700
H2349       H  0.96091869  0.53423074  0.73018134     0.18600
N2350       N  0.97744331  0.50087799  0.79465746     0.76200
H2351       H  0.94914374  0.52843895  0.80844066     0.10200
C2352       C  0.90762435  0.55502294  0.80022310     0.03900
C2353       C  0.89526727  0.57057737  0.81048640    -0.04900
C2354       C  0.90206240  0.59203930  0.81189860    -0.23300
C2355       C  0.92216107  0.59752517  0.80319300     0.13100
C2356       C  0.93430528  0.58199120  0.79267123    -0.12400
N2357       N  0.89984939  0.53353842  0.79906382     0.64800
H2358       H  0.88006619  0.56576889  0.81716967     0.12600
N2359       N  0.93048290  0.61878067  0.80459021     0.61400
H2360       H  0.94958237  0.58649571  0.78592717     0.08800
O2361       O  0.96864742  0.48353514  0.80010145    -0.40100
O2362       O  0.99327771  0.50755975  0.80519584    -0.39200
O2363       O  0.94427446  0.57999411  0.74056274    -0.39200
O2364       O  0.91787372  0.55826453  0.73411149    -0.36900
O2365       O  0.94311558  0.62344922  0.81962144    -0.37800
O2366       O  0.92915384  0.63104325  0.78857965    -0.34000
O2367       O  0.90155555  0.52153931  0.81523956    -0.35400
O2368       O  0.88693302  0.52852952  0.78439302    -0.39700
C2369       C  0.05126894  0.43318720  0.76513736    -0.13400
C2370       C  0.05414091  0.43862855  0.78660986     0.17000
C2371       C  0.04412181  0.45695045  0.79475928     0.03300
C2372       C  0.03084712  0.46905965  0.78150503    -0.11900
C2373       C  0.02737724  0.46349002  0.75991280    -0.03000
C2374       C  0.03828099  0.44543962  0.75169919     0.02500
C2375       C  0.06909483  0.42584750  0.79952821     0.09400
N2376       N  0.04706171  0.46334242  0.81650776     0.65700
H2377       H  0.02330017  0.48307650  0.78831496     0.18600
N2378       N  0.03692280  0.43928591  0.72981234     0.76200
H2379       H  0.05954285  0.41941177  0.75859781     0.10200
C2380       C  0.06464938  0.40440991  0.80479771     0.03900
C2381       C  0.08026852  0.39188712  0.81458964    -0.04900
C2382       C  0.10069207  0.40013018  0.81889678    -0.23300
C2383       C  0.10501240  0.42181910  0.81361672     0.13100
C2384       C  0.08913015  0.43442469  0.80423896    -0.12400
N2385       N  0.04446774  0.39499988  0.79992297     0.64800
H2386       H  0.07640526  0.37536638  0.81835899     0.12600
N2387       N  0.12555555  0.43116506  0.81676735     0.61400
H2388       H  0.09278629  0.45081549  0.79970501     0.08800
O2389       O  0.02293775  0.42578074  0.72444171    -0.40100
O2390       O  0.05341709  0.44113356  0.71846476    -0.39200
O2391       O  0.05975070  0.47845307  0.82073928    -0.39200
O2392       O  0.03352995  0.45773411  0.83031626    -0.36900
O2393       O  0.13875217  0.43098050  0.80156936    -0.37800
O2394       O  0.12839907  0.44394181  0.83215473    -0.34000
O2395       O  0.04271905  0.38295202  0.78380069    -0.35400
O2396       O  0.03021052  0.39460904  0.81410329    -0.39700
C2397       C  0.96071925  0.30351577  0.04568409    -0.13400
C2398       C  0.94916306  0.29231858  0.06126124     0.17000
C2399       C  0.95261127  0.27015912  0.06373725     0.03300
C2400       C  0.96714701  0.25958671  0.05062199    -0.11900
C2401       C  0.97863293  0.27055578  0.03476741    -0.03000
C2402       C  0.97531557  0.29292835  0.03241444     0.02500
C2403       C  0.93224206  0.30333804  0.07357985     0.09400
N2404       N  0.94159297  0.25813865  0.07972610     0.65700
H2405       H  0.96950785  0.24254701  0.05308615     0.18600
N2406       N  0.98576595  0.30502792  0.01609018     0.76200
H2407       H  0.95786535  0.32049629  0.04330317     0.10200
C2408       C  0.93659165  0.32081072  0.08724193     0.03900
C2409       C  0.92019050  0.32967835  0.09956195    -0.04900
C2410       C  0.89946956  0.32130102  0.09864229    -0.23300
C2411       C  0.89491292  0.30470323  0.08401639     0.13100
C2412       C  0.91123460  0.29597919  0.07163037    -0.12400
N2413       N  0.95773003  0.32890461  0.08972546     0.64800
H2414       H  0.92392509  0.34246752  0.11072790     0.12600
N2415       N  0.87370087  0.29692311  0.08113544     0.61400
H2416       H  0.90749444  0.28318070  0.06047674     0.08800
O2417       O  0.00090171  0.31735068  0.02115262    -0.40100
O2418       O  0.97675719  0.30735280  0.99816146    -0.39200
O2419       O  0.92665914  0.24576710  0.07419989    -0.39200
O2420       O  0.94984865  0.25608527  0.09804205    -0.36900
O2421       O  0.86195901  0.30550417  0.06714622    -0.37800
O2422       O  0.86865394  0.27883703  0.08860280    -0.34000
O2423       O  0.96258283  0.34667336  0.08140986    -0.35400
O2424       O  0.96965338  0.32102288  0.10396447    -0.39700
C2425       C  0.07233871  0.27007113  0.96403271    -0.13400
C2426       C  0.06797008  0.29141656  0.95870582     0.17000
C2427       C  0.05009659  0.30149487  0.96765159     0.03300
C2428       C  0.03669493  0.29006990  0.98127460    -0.11900
C2429       C  0.04038169  0.26840014  0.98607165    -0.03000
C2430       C  0.05873428  0.25842094  0.97746653     0.02500
C2431       C  0.08081488  0.30208419  0.94202384     0.09400
N2432       N  0.04502863  0.32322491  0.96267628     0.65700
H2433       H  0.02278094  0.29820485  0.98749463     0.18600
N2434       N  0.06368580  0.23649239  0.98174439     0.76200
H2435       H  0.08597340  0.26209625  0.95698179     0.10200
C2436       C  0.10262765  0.30620948  0.94492179     0.03900
C2437       C  0.11448468  0.31490563  0.92815201    -0.04900
C2438       C  0.10515314  0.31941531  0.90811685    -0.23300
C2439       C  0.08316538  0.31523378  0.90531417     0.13100
C2440       C  0.07128808  0.30675193  0.92226419    -0.12400
N2441       N  0.11298908  0.30171351  0.96480561     0.64800
H2442       H  0.13129570  0.31785064  0.93089589     0.12600
N2443       N  0.07266815  0.31893756  0.88534741     0.61400
H2444       H  0.05454600  0.30318295  0.91976669     0.08800
O2445       O  0.07801694  0.23212283  0.99523669    -0.40100
O2446       O  0.05803327  0.22234906  0.96846089    -0.39200
O2447       O  0.03031111  0.32706865  0.94944700    -0.39200
O2448       O  0.05108391  0.33785643  0.97521999    -0.36900
O2449       O  0.07053871  0.30363883  0.87232121    -0.37800
O2450       O  0.06135826  0.33546589  0.88308514    -0.34000
O2451       O  0.12462504  0.28533172  0.96635498    -0.35400
O2452       O  0.11475086  0.31640674  0.97855426    -0.39700
C2453       C  0.05001903  0.54310276  0.19881251    -0.13400
C2454       C  0.05351656  0.56317618  0.20818399     0.17000
C2455       C  0.04267226  0.56846901  0.22719297     0.03300
C2456       C  0.02938704  0.55331296  0.23689226    -0.11900
C2457       C  0.02616742  0.53300736  0.22776139    -0.03000
C2458       C  0.03645760  0.52805101  0.20833337     0.02500
C2459       C  0.06889458  0.57798577  0.19797030     0.09400
N2460       N  0.04405134  0.58944523  0.23624833     0.65700
H2461       H  0.02114483  0.55765338  0.25150661     0.18600
N2462       N  0.03423543  0.50753993  0.19852976     0.76200
H2463       H  0.05830317  0.53888733  0.18418807     0.10200
C2464       C  0.08827909  0.58332123  0.20799765     0.03900
C2465       C  0.10266961  0.59685865  0.19766005    -0.04900
C2466       C  0.09860063  0.60494614  0.17703631    -0.23300
C2467       C  0.07948602  0.59888371  0.16662574     0.13100
C2468       C  0.06480360  0.58565788  0.17724371    -0.12400
N2469       N  0.09430946  0.57402203  0.22802375     0.64800
H2470       H  0.11747463  0.60067617  0.20578970     0.12600
N2471       N  0.07452746  0.60611312  0.14549840     0.61400
H2472       H  0.05011665  0.58123684  0.16920076     0.08800
O2473       O  0.04634951  0.49255065  0.20443022    -0.40100
O2474       O  0.02523308  0.50631869  0.18050224    -0.39200
O2475       O  0.03154131  0.60375964  0.22954782    -0.39200
O2476       O  0.05289282  0.59185449  0.25424465    -0.36900
O2477       O  0.07850009  0.59407078  0.12979901    -0.37800
O2478       O  0.06169009  0.62144497  0.14307521    -0.34000
O2479       O  0.10331854  0.55597743  0.22803313    -0.35400
O2480       O  0.09629395  0.58594306  0.24420838    -0.39700
C2481       C  0.95134757  0.46134744  0.19837222    -0.13400
C2482       C  0.93380428  0.45517538  0.21070927     0.17000
C2483       C  0.93205147  0.46273520  0.23184587     0.03300
C2484       C  0.94821224  0.47542613  0.24053630    -0.11900
C2485       C  0.96645183  0.48077197  0.22864228    -0.03000
C2486       C  0.96763046  0.47399842  0.20707588     0.02500
C2487       C  0.91942772  0.43834993  0.20238712     0.09400
N2488       N  0.91411109  0.45738110  0.24481973     0.65700
H2489       H  0.94648236  0.48092363  0.25690432     0.18600
N2490       N  0.98569654  0.47860233  0.19408472     0.76200
H2491       H  0.95305083  0.45526468  0.18219588     0.10200
C2492       C  0.90784790  0.44096849  0.18322206     0.03900
C2493       C  0.89614704  0.42378530  0.17489912    -0.04900
C2494       C  0.89563955  0.40392834  0.18543937    -0.23300
C2495       C  0.90744978  0.40128288  0.20452152     0.13100
C2496       C  0.91918141  0.41844267  0.21275364    -0.12400
N2497       N  0.90738024  0.46109805  0.17234968     0.64800
H2498       H  0.88696934  0.42616245  0.16034340     0.12600
N2499       N  0.90875623  0.38098942  0.21503617     0.61400
H2500       H  0.92875540  0.41598893  0.22703825     0.08800
O2501       O  0.98346099  0.49088971  0.17819406    -0.40100
O2502       O  0.00150413  0.46618276  0.19480135    -0.39200
O2503       O  0.91618120  0.44363813  0.25949674    -0.39200
O2504       O  0.89828577  0.46978523  0.24508655    -0.36900
O2505       O  0.92355233  0.36829833  0.21008394    -0.37800
O2506       O  0.89878945  0.37810364  0.23231282    -0.34000
O2507       O  0.91772713  0.46338333  0.15521119    -0.35400
O2508       O  0.89314322  0.47451276  0.17703413    -0.39700
C2509       C  0.23714702  0.56515482  0.04820793    -0.13400
C2510       C  0.21688548  0.55863980  0.05503458     0.17000
C2511       C  0.20814931  0.53955295  0.04680104     0.03300
C2512       C  0.21975132  0.52730639  0.03221389    -0.11900
C2513       C  0.24020271  0.53353393  0.02562629    -0.03000
C2514       C  0.24888185  0.55283483  0.03370536     0.02500
C2515       C  0.20479593  0.57251624  0.06992780     0.09400
N2516       N  0.18781784  0.53197329  0.05364914     0.65700
H2517       H  0.21283162  0.51244908  0.02642717     0.18600
N2518       N  0.26904397  0.56073519  0.02664403     0.76200
H2519       H  0.24376675  0.58019338  0.05387514     0.10200
C2520       C  0.21322358  0.57826765  0.09003256     0.03900
C2521       C  0.20238057  0.59283776  0.10290264    -0.04900
C2522       C  0.18315089  0.60220180  0.09622557    -0.23300
C2523       C  0.17447828  0.59619417  0.07622403     0.13100
C2524       C  0.18532793  0.58140660  0.06333079    -0.12400
N2525       N  0.23280354  0.56946781  0.09767512     0.64800
H2526       H  0.20928288  0.59699735  0.11830288     0.12600
N2527       N  0.15561637  0.60601820  0.06806936     0.61400
H2528       H  0.17892906  0.57750711  0.04765149     0.08800
O2529       O  0.26968051  0.57363159  0.01109278    -0.40100
O2530       O  0.28494567  0.55932372  0.03894054    -0.39200
O2531       O  0.17209313  0.53348425  0.04113977    -0.39200
O2532       O  0.18676902  0.51941633  0.06944776    -0.36900
O2533       O  0.15723240  0.62225157  0.05613103    -0.37800
O2534       O  0.13827530  0.59581227  0.06857107    -0.34000
O2535       O  0.24941709  0.58085079  0.09725248    -0.35400
O2536       O  0.23231111  0.55315492  0.10959615    -0.39700
C2537       C  0.19709221  0.41734070  0.93759802    -0.13400
C2538       C  0.20063564  0.43783165  0.92922095     0.17000
C2539       C  0.19527021  0.44211726  0.90780572     0.03300
C2540       C  0.18683535  0.42579722  0.89502229    -0.11900
C2541       C  0.18397550  0.40487546  0.90301950    -0.03000
C2542       C  0.18898155  0.40084034  0.92478481     0.02500
C2543       C  0.21329597  0.45306634  0.94201607     0.09400
N2544       N  0.19951467  0.46255140  0.89842535     0.65700
H2545       H  0.18321596  0.42948157  0.87843481     0.18600
N2546       N  0.18684645  0.38000403  0.93400403     0.76200
H2547       H  0.20161524  0.41386776  0.95402300     0.10200
C2548       C  0.20396956  0.46919806  0.95449294     0.03900
C2549       C  0.21677026  0.48170151  0.96797498    -0.04900
C2550       C  0.23893723  0.47833396  0.96954436    -0.23300
C2551       C  0.24809448  0.46207125  0.95670337     0.13100
C2552       C  0.23523980  0.44983407  0.94311465    -0.12400
N2553       N  0.18150547  0.47263844  0.95419665     0.64800
H2554       H  0.20907540  0.49393141  0.97752865     0.12600
N2555       N  0.27010003  0.45668416  0.95796710     0.61400
H2556       H  0.24243321  0.43714913  0.93371320     0.08800
O2557       O  0.17097484  0.37593718  0.94566427    -0.40100
O2558       O  0.20286072  0.36785664  0.93478339    -0.39200
O2559       O  0.21646730  0.46524760  0.88796880    -0.39200
O2560       O  0.18448776  0.47574026  0.89616942    -0.36900
O2561       O  0.27514820  0.43899303  0.96631169    -0.37800
O2562       O  0.28296118  0.46563434  0.94529844    -0.34000
O2563       O  0.17022805  0.46475930  0.96892785    -0.35400
O2564       O  0.17397509  0.48745383  0.94272879    -0.39700
C2565       C  0.80393643  0.58412941  0.93103542    -0.13400
C2566       C  0.80022971  0.56337903  0.92333602     0.17000
C2567       C  0.80594393  0.55833819  0.90217724     0.03300
C2568       C  0.81504710  0.57399651  0.88912189    -0.11900
C2569       C  0.81851045  0.59501099  0.89651907    -0.03000
C2570       C  0.81289684  0.59996767  0.91791940     0.02500
C2571       C  0.78880975  0.54780326  0.93700791     0.09400
N2572       N  0.80265156  0.53735296  0.89366955     0.65700
H2573       H  0.81918233  0.56955940  0.87286438     0.18600
N2574       N  0.81553098  0.62100667  0.92651086     0.76200
H2575       H  0.79918808  0.58828266  0.94720742     0.10200
C2576       C  0.79719839  0.54098620  0.95677309     0.03900
C2577       C  0.78536748  0.52726156  0.96978605    -0.04900
C2578       C  0.76500545  0.52015089  0.96370362    -0.23300
C2579       C  0.75658498  0.52703418  0.94380989     0.13100
C2580       C  0.76856428  0.54069742  0.93072497    -0.12400
N2581       N  0.81777954  0.54771886  0.96384608     0.64800
H2582       H  0.79216741  0.52242007  0.98501429     0.12600
N2583       N  0.73611462  0.52023865  0.93644203     0.61400
H2584       H  0.76180624  0.54614260  0.91566965     0.08800
O2585       O  0.83129885  0.62488413  0.93845176    -0.40100
O2586       O  0.79982359  0.63357092  0.92672531    -0.39200
O2587       O  0.78717061  0.53407893  0.88117793    -0.39200
O2588       O  0.81774675  0.52406535  0.89418110    -0.36900
O2589       O  0.73491749  0.50517789  0.92303075    -0.37800
O2590       O  0.72043374  0.53262891  0.93867233    -0.34000
O2591       O  0.81918774  0.56220309  0.97785713    -0.35400
O2592       O  0.83354529  0.53568775  0.96056270    -0.39700
C2593       C  0.79650382  0.45922766  0.04513954    -0.13400
C2594       C  0.78727734  0.43962270  0.05102712     0.17000
C2595       C  0.76752073  0.43370129  0.04195360     0.03300
C2596       C  0.75726721  0.44748664  0.02773534    -0.11900
C2597       C  0.76625963  0.46723450  0.02206133    -0.03000
C2598       C  0.78628383  0.47300367  0.03070683     0.02500
C2599       C  0.79719235  0.42657917  0.06819853     0.09400
N2600       N  0.75758401  0.41372250  0.04700511     0.65700
H2601       H  0.74209262  0.44255964  0.02097899     0.18600
N2602       N  0.79582131  0.49329155  0.02617223     0.76200
H2603       H  0.81132515  0.46434459  0.05249697     0.10200
C2604       C  0.81852633  0.41961434  0.06723676     0.03900
C2605       C  0.82680098  0.40684214  0.08368518    -0.04900
C2606       C  0.81425077  0.40087193  0.10129067    -0.23300
C2607       C  0.79328119  0.40890170  0.10276991     0.13100
C2608       C  0.78507667  0.42163659  0.08634666    -0.12400
N2609       N  0.83185037  0.42488173  0.04948909     0.64800
H2610       H  0.84302124  0.40104918  0.08230935     0.12600
N2611       N  0.78030610  0.40494323  0.12111566     0.61400
H2612       H  0.76906149  0.42792949  0.08791668     0.08800
O2613       O  0.81161985  0.49416663  0.01376939    -0.40100
O2614       O  0.79194798  0.50898058  0.03826328    -0.39200
O2615       O  0.74144809  0.41358162  0.05899695    -0.39200
O2616       O  0.76125907  0.39765407  0.03536410    -0.36900
O2617       O  0.78046079  0.41824343  0.13631519    -0.37800
O2618       O  0.76533793  0.39149589  0.11985527    -0.34000
O2619       O  0.84597475  0.43910792  0.05173896    -0.35400
O2620       O  0.83308435  0.41204554  0.03395757    -0.39700
C2621       C  0.88534921  0.00907036  0.01589348    -0.13400
C2622       C  0.87511200  0.99948560  0.99841275     0.17000
C2623       C  0.88736624  0.99174338  0.98125090     0.03300
C2624       C  0.90956474  0.99340593  0.98206966    -0.11900
C2625       C  0.91996900  0.00306955  0.99957404    -0.03000
C2626       C  0.90750599  0.01106480  0.01660820     0.02500
C2627       C  0.85161953  0.99980208  0.99776427     0.09400
N2628       N  0.87756179  0.98329362  0.96238365     0.65700
H2629       H  0.91867738  0.98747435  0.96859415     0.18600
N2630       N  0.91695129  0.02114166  0.03482711     0.76200
H2631       H  0.87596903  0.01535744  0.02902798     0.10200
C2632       C  0.83923371  0.98107996  0.99995848     0.03900
C2633       C  0.81699563  0.98263403  0.00025362    -0.04900
C2634       C  0.80687061  0.00263213  0.99903874    -0.23300
C2635       C  0.81932995  0.02130008  0.99702613     0.13100
C2636       C  0.84148811  0.01971159  0.99630992    -0.12400
N2637       N  0.84892142  0.96064093  0.00322972     0.64800
H2638       H  0.80757076  0.96815237  0.00206876     0.12600
N2639       N  0.80975932  0.04190152  0.99481760     0.61400
H2640       H  0.85093066  0.03420293  0.99466133     0.08800
O2641       O  0.92008500  0.01031132  0.05159795    -0.40100
O2642       O  0.91738558  0.04132265  0.03584384    -0.39200
O2643       O  0.87350867  0.99579259  0.94702788    -0.39200
O2644       O  0.87843856  0.96341944  0.95887510    -0.36900
O2645       O  0.81067516  0.05486400  0.01026548    -0.37800
O2646       O  0.80561436  0.04889885  0.97632262    -0.34000
O2647       O  0.85298171  0.95461378  0.02208678    -0.35400
O2648       O  0.84810287  0.94685776  0.98849207    -0.39700
C2649       C  0.97819891  0.84180562  0.99448271    -0.13400
C2650       C  0.99784763  0.85222935  0.99629803     0.17000
C2651       C  0.01645005  0.83994359  0.99863972     0.03300
C2652       C  0.01518158  0.81759120  0.99882257    -0.11900
C2653       C  0.99554896  0.80694166  0.99686165    -0.03000
C2654       C  0.97679148  0.81938886  0.99496843     0.02500
C2655       C  0.99853852  0.87592020  0.99691888     0.09400
N2656       N  0.03683250  0.84995088  0.00036898     0.65700
H2657       H  0.02983105  0.80850067  0.00016215     0.18600
N2658       N  0.95611909  0.80984051  0.99482116     0.76200
H2659       H  0.96371762  0.85121087  0.99339076     0.10200
C2660       C  0.99213096  0.88833853  0.97922837     0.03900
C2661       C  0.99294131  0.91068789  0.98040645    -0.04900
C2662       C  0.99986257  0.92113081  0.99909452    -0.23300
C2663       C  0.00541715  0.90860835  0.01715165     0.13100
C2664       C  0.00490582  0.88621771  0.01580546    -0.12400
N2665       N  0.98526679  0.87847532  0.95976963     0.64800
H2666       H  0.98842530  0.91992588  0.96638454     0.12600
N2667       N  0.01041097  0.91826627  0.03728469     0.61400
H2668       H  0.00908818  0.87676111  0.02979252     0.08800
O2669       O  0.94349635  0.81439013  0.97975297    -0.40100
O2670       O  0.94859508  0.80276998  0.01216236    -0.39200
O2671       O  0.04598774  0.85074101  0.01835219    -0.39200
O2672       O  0.04741745  0.85360970  0.98362076    -0.36900
O2673       O  0.99561276  0.92188285  0.05041224    -0.37800
O2674       O  0.02943745  0.91840217  0.04378700    -0.34000
O2675       O  0.96569526  0.87811234  0.95519946    -0.35400
O2676       O  0.99873943  0.87448846  0.94538008    -0.39700
C2677       C  0.98090760  0.99557265  0.83606066    -0.13400
C2678       C  0.99363756  0.01098451  0.84636986     0.17000
C2679       C  0.00526996  0.02546928  0.83346706     0.03300
C2680       C  0.00422518  0.02402985  0.81108987    -0.11900
C2681       C  0.99152033  0.00859553  0.80071417    -0.03000
C2682       C  0.97931653  0.99453767  0.81365775     0.02500
C2683       C  0.99531796  0.01086715  0.87036400     0.09400
N2684       N  0.01794945  0.04211000  0.84268859     0.65700
H2685       H  0.01354486  0.03532593  0.80179589     0.18600
N2686       N  0.96514161  0.97909640  0.80455681     0.76200
H2687       H  0.97228851  0.98383442  0.84546126     0.10200
C2688       C  0.97711483  0.00899219  0.88361279     0.03900
C2689       C  0.97942065  0.00694590  0.90584193    -0.04900
C2690       C  0.99952296  0.00734101  0.91555496    -0.23300
C2691       C  0.01770751  0.00962759  0.90258993     0.13100
C2692       C  0.01551594  0.01104987  0.88024352    -0.12400
N2693       N  0.95606372  0.00982006  0.87494299     0.64800
H2694       H  0.96527108  0.00563187  0.91566385     0.12600
N2695       N  0.03854372  0.00954159  0.91184382     0.61400
H2696       H  0.02976642  0.01154841  0.87057460     0.08800
O2697       O  0.94560005  0.98352022  0.80309742    -0.40100
O2698       O  0.97093851  0.95980292  0.80331930    -0.39200
O2699       O  0.03796507  0.04058565  0.84203984    -0.39200
O2700       O  0.00968582  0.06026461  0.84564250    -0.36900
O2701       O  0.04581643  0.99257027  0.92002858    -0.37800
O2702       O  0.04838031  0.02698174  0.91448351    -0.34000
O2703       O  0.94480067  0.99306061  0.87501052    -0.35400
O2704       O  0.94705581  0.02776776  0.87306518    -0.39700
C2705       C  0.01442471  0.12269344  0.98917254    -0.13400
C2706       C  0.00632025  0.13221239  0.00774814     0.17000
C2707       C  0.99676201  0.11917403  0.02342174     0.03300
C2708       C  0.99579997  0.09700173  0.02049229    -0.11900
C2709       C  0.00415883  0.08727448  0.00205286    -0.03000
C2710       C  0.01338127  0.10048972  0.98611296     0.02500
C2711       C  0.00670532  0.15585777  0.00972627     0.09400
N2712       N  0.98843701  0.12814056  0.04268111     0.65700
H2713       H  0.98870372  0.08731355  0.03303101     0.18600
N2714       N  0.02099600  0.09185788  0.96638914     0.76200
H2715       H  0.02120669  0.13266971  0.97667178     0.10200
C2716       C  0.02599247  0.16741288  0.00947556     0.03900
C2717       C  0.02569145  0.18980106  0.00941502    -0.04900
C2718       C  0.00642361  0.20112366  0.00960917    -0.23300
C2719       C  0.98707740  0.18953248  0.00997524     0.13100
C2720       C  0.98741594  0.16709669  0.01009934    -0.12400
N2721       N  0.04602685  0.15664040  0.00952227     0.64800
H2722       H  0.04072911  0.19840281  0.00939122     0.12600
N2723       N  0.96700945  0.20017573  0.00858963     0.61400
H2724       H  0.97245728  0.15836682  0.00964411     0.08800
O2725       O  0.04075881  0.08962757  0.96365956    -0.40100
O2726       O  0.00872881  0.09130234  0.95037004    -0.39200
O2727       O  0.96855035  0.12977185  0.04489497    -0.39200
O2728       O  0.00029880  0.12949853  0.05895182    -0.36900
O2729       O  0.95933098  0.20440320  0.99038719    -0.37800
O2730       O  0.95505185  0.20070171  0.02477747    -0.34000
O2731       O  0.05680635  0.15596003  0.99252186    -0.35400
O2732       O  0.05494328  0.15247754  0.02715729    -0.39700
C2733       C  0.16570848  0.01836241  0.99571746    -0.13400
C2734       C  0.15386055  0.99938808  0.99768397     0.17000
C2735       C  0.16464921  0.97958818  0.99788996     0.03300
C2736       C  0.18692414  0.97920680  0.99745757    -0.11900
C2737       C  0.19877120  0.99815140  0.99538575    -0.03000
C2738       C  0.18794127  0.01789257  0.99413165     0.02500
C2739       C  0.13027705  0.00065226  0.99806673     0.09400
N2740       N  0.15329173  0.95979409  0.99628784     0.65700
H2741       H  0.19502019  0.96385735  0.99764419     0.18600
N2742       N  0.19921723  0.03760022  0.99150201     0.76200
H2743       H  0.15757924  0.03367655  0.99511256     0.10200
C2744       C  0.11815973  0.99291926  0.01542725     0.03900
C2745       C  0.09594207  0.99406847  0.01468477    -0.04900
C2746       C  0.08527348  0.00341832  0.99724233    -0.23300
C2747       C  0.09754145  0.01199265  0.98026749     0.13100
C2748       C  0.11975197  0.01029102  0.98077212    -0.12400
N2749       N  0.12807955  0.98514516  0.03451218     0.64800
H2750       H  0.08697770  0.98800843  0.02826882     0.12600
N2751       N  0.08784696  0.02219718  0.96224723     0.61400
H2752       H  0.12892746  0.01657598  0.96742874     0.08800
O2753       O  0.20337742  0.04887345  0.00773803    -0.40100
O2754       O  0.20016773  0.04601522  0.97316048    -0.39200
O2755       O  0.14638676  0.95398768  0.97820745    -0.39200
O2756       O  0.15524874  0.94599496  0.01092275    -0.36900
O2757       O  0.08633214  0.01211621  0.94481261    -0.37800
O2758       O  0.08580239  0.04230194  0.96222383    -0.34000
O2759       O  0.13276650  0.99835454  0.04906624    -0.35400
O2760       O  0.12612544  0.96561503  0.03933481    -0.39700
C2761       C  0.01586626  0.99113261  0.11771030    -0.13400
C2762       C  0.99696544  0.99746664  0.12778402     0.17000
C2763       C  0.98004882  0.00514129  0.11500902     0.03300
C2764       C  0.98241523  0.00659423  0.09275720    -0.11900
C2765       C  0.00139766  0.00045110  0.08261414    -0.03000
C2766       C  0.01822533  0.99246041  0.09542141     0.02500
C2767       C  0.99618961  0.99818563  0.15161814     0.09400
N2768       N  0.96021954  0.01125129  0.12432240     0.65700
H2769       H  0.96909183  0.01240476  0.08332338     0.18600
N2770       N  0.03822291  0.98668258  0.08628550     0.76200
H2771       H  0.02928791  0.98585876  0.12731386     0.10200
C2772       C  0.00087874  0.98010084  0.16437056     0.03900
C2773       C  0.00220171  0.98210122  0.18669602    -0.04900
C2774       C  0.99882268  0.00187114  0.19683979    -0.23300
C2775       C  0.99403370  0.01994170  0.18404916     0.13100
C2776       C  0.99278603  0.01792022  0.16174232    -0.12400
N2777       N  0.00395151  0.95949936  0.15494979     0.64800
H2778       H  0.00560994  0.96793980  0.19618876     0.12600
N2779       N  0.99179406  0.04075806  0.19323929     0.61400
H2780       H  0.98996341  0.03215513  0.15217114     0.08800
O2781       O  0.04292843  0.96714276  0.08435163    -0.40100
O2782       O  0.05270400  0.00063132  0.08480433    -0.39200
O2783       O  0.95548130  0.03085030  0.12542550    -0.39200
O2784       O  0.94570861  0.99739915  0.12629988    -0.36900
O2785       O  0.00807965  0.05241659  0.19542925    -0.37800
O2786       O  0.97359709  0.04922116  0.19406493    -0.34000
O2787       O  0.02250299  0.95188661  0.15381697    -0.35400
O2788       O  0.98818019  0.94715686  0.15271275    -0.39700
C2789       C  0.99884112  0.61633540  0.51292010    -0.13400
C2790       C  0.99398466  0.62669853  0.49359326     0.17000
C2791       C  0.99012058  0.61418855  0.47520227     0.03300
C2792       C  0.99121123  0.59182507  0.47644897    -0.11900
C2793       C  0.99620880  0.58134823  0.49574601    -0.03000
C2794       C  0.99990189  0.59394095  0.51422263     0.02500
C2795       C  0.99419894  0.65050260  0.49277384     0.09400
N2796       N  0.98464988  0.62391053  0.45522569     0.65700
H2797       H  0.98826075  0.58256815  0.46201261     0.18600
N2798       N  0.00402443  0.58435600  0.53457849     0.76200
H2799       H  0.00209606  0.62576555  0.52718374     0.10200
C2800       C  0.98125529  0.66286180  0.50636804     0.03900
C2801       C  0.98316709  0.68514015  0.50646293    -0.04900
C2802       C  0.99779114  0.69588303  0.49325919    -0.23300
C2803       C  0.01066696  0.68340525  0.47939950     0.13100
C2804       C  0.00871455  0.66101603  0.47936652    -0.12400
N2805       N  0.96579702  0.65308307  0.51997305     0.64800
H2806       H  0.97285481  0.69408870  0.51717535     0.12600
N2807       N  0.02613619  0.69294854  0.46561848     0.61400
H2808       H  0.01915042  0.65166806  0.46911710     0.08800
O2809       O  0.98881556  0.58176675  0.54748545    -0.40100
O2810       O  0.02287994  0.58376995  0.54154958    -0.39200
O2811       O  0.99844822  0.62503615  0.44062246    -0.39200
O2812       O  0.96528137  0.62646550  0.45051643    -0.36900
O2813       O  0.04519228  0.69439356  0.47188966    -0.37800
O2814       O  0.02201658  0.69489350  0.44593003    -0.34000
O2815       O  0.96932543  0.65217058  0.53984986    -0.35400
O2816       O  0.94697763  0.65090740  0.51321623    -0.39700
C2817       C  0.88315670  0.48345274  0.50390828    -0.13400
C2818       C  0.87282166  0.49646048  0.48897607     0.17000
C2819       C  0.88489292  0.50914743  0.47491274     0.03300
C2820       C  0.90710629  0.50853535  0.47591010    -0.11900
C2821       C  0.91772307  0.49556849  0.49093943    -0.03000
C2822       C  0.90536132  0.48294209  0.50516328     0.02500
C2823       C  0.84947043  0.49802473  0.48981674     0.09400
N2824       N  0.87480921  0.52271795  0.45953982     0.65700
H2825       H  0.91606834  0.51841022  0.46479260     0.18600
N2826       N  0.91487059  0.47026977  0.52163171     0.76200
H2827       H  0.87384093  0.47403335  0.51514905     0.10200
C2828       C  0.83634030  0.48166432  0.48186482     0.03900
C2829       C  0.81430252  0.48314658  0.48422123    -0.04900
C2830       C  0.80477168  0.50060828  0.49476849    -0.23300
C2831       C  0.81831329  0.51653537  0.50356514     0.13100
C2832       C  0.84036569  0.51522239  0.50069462    -0.12400
N2833       N  0.84515399  0.46332425  0.47154624     0.64800
H2834       H  0.80465271  0.47018442  0.47798375     0.12600
N2835       N  0.81041945  0.53365513  0.51628096     0.61400
H2836       H  0.85056159  0.52749069  0.50756438     0.08800
O2837       O  0.91647331  0.45030521  0.51900570    -0.40100
O2838       O  0.91608817  0.47783597  0.54030922    -0.39200
O2839       O  0.87383234  0.54260047  0.46299184    -0.39200
O2840       O  0.87138214  0.51572318  0.44090179    -0.36900
O2841       O  0.80613205  0.55122098  0.50726695    -0.37800
O2842       O  0.81483610  0.53361124  0.53600400    -0.34000
O2843       O  0.84745555  0.44621538  0.48205777    -0.35400
O2844       O  0.84580659  0.46272356  0.45137225    -0.39700
C2845       C  0.97624430  0.48626242  0.60955949    -0.13400
C2846       C  0.99387536  0.49345814  0.62132018     0.17000
C2847       C  0.01214176  0.50052161  0.61022982     0.03300
C2848       C  0.01235052  0.50056088  0.58788448    -0.11900
C2849       C  0.99480959  0.49328919  0.57601059    -0.03000
C2850       C  0.97656174  0.48599796  0.58711257     0.02500
C2851       C  0.99381523  0.49174915  0.64501301     0.09400
N2852       N  0.03071181  0.50765306  0.62140882     0.65700
H2853       H  0.02658716  0.50611044  0.57975585     0.18600
N2854       N  0.95797117  0.47893964  0.57597345     0.76200
H2855       H  0.96226556  0.48033263  0.61786265     0.10200
C2856       C  0.97859895  0.50206940  0.65789598     0.03900
C2857       C  0.97992754  0.50044631  0.68024261    -0.04900
C2858       C  0.99613273  0.48848663  0.69035976    -0.23300
C2859       C  0.01068724  0.47738791  0.67710958     0.13100
C2860       C  0.00927858  0.47907208  0.65485025    -0.12400
N2861       N  0.96197338  0.51463106  0.64863272     0.64800
H2862       H  0.96814978  0.50889133  0.68967647     0.12600
N2863       N  0.02712895  0.46423834  0.68558122     0.61400
H2864       H  0.02053817  0.47027690  0.64507499     0.08800
O2865       O  0.94223935  0.49139275  0.57461293    -0.40100
O2866       O  0.95525633  0.45916345  0.57279121    -0.39200
O2867       O  0.04666347  0.49544755  0.62255330    -0.39200
O2868       O  0.03308188  0.52738266  0.62505996    -0.36900
O2869       O  0.02528627  0.44422318  0.68346076    -0.37800
O2870       O  0.04550550  0.47220793  0.68750700    -0.34000
O2871       O  0.94340529  0.50695443  0.64758520    -0.35400
O2872       O  0.96459371  0.53456160  0.64655954    -0.39700
C2873       C  0.11909215  0.48880434  0.49760676    -0.13400
C2874       C  0.12731538  0.50814075  0.50555575     0.17000
C2875       C  0.11318957  0.52503336  0.51005130     0.03300
C2876       C  0.09125004  0.52202771  0.50749113    -0.11900
C2877       C  0.08287386  0.50263670  0.49970740    -0.03000
C2878       C  0.09716899  0.48601743  0.49428476     0.02500
C2879       C  0.15073304  0.51059585  0.50782004     0.09400
N2880       N  0.12082237  0.54537938  0.51717441     0.65700
H2881       H  0.08069325  0.53521098  0.51130517     0.18600
N2882       N  0.08983213  0.46625689  0.48538387     0.76200
H2883       H  0.12986674  0.47589103  0.49348500     0.10200
C2884       C  0.16251109  0.49752979  0.52187154     0.03900
C2885       C  0.18476235  0.49830900  0.52174113    -0.04900
C2886       C  0.19594567  0.51195571  0.50775365    -0.23300
C2887       C  0.18394882  0.52577910  0.49427208     0.13100
C2888       C  0.16162227  0.52486624  0.49442633    -0.12400
N2889       N  0.15209534  0.48337587  0.53646986     0.64800
H2890       H  0.19327935  0.48778406  0.53259018     0.12600
N2891       N  0.19394180  0.54061767  0.48004878     0.61400
H2892       H  0.15272119  0.53494378  0.48344821     0.08800
O2893       O  0.08831239  0.44998404  0.49727346    -0.40100
O2894       O  0.08994719  0.46384906  0.46532595    -0.39200
O2895       O  0.12205589  0.56060367  0.50393188    -0.39200
O2896       O  0.12096086  0.54948548  0.53694430    -0.36900
O2897       O  0.19690034  0.53529634  0.46080225    -0.37800
O2898       O  0.19457626  0.56018826  0.48504735    -0.34000
O2899       O  0.15194630  0.46352879  0.53268488    -0.35400
O2900       O  0.14783344  0.48989101  0.55508483    -0.39700
C2901       C  0.01935264  0.33727347  0.49589392    -0.13400
C2902       C  0.00376851  0.34641658  0.48274492     0.17000
C2903       C  0.99085341  0.33308600  0.47009190     0.03300
C2904       C  0.99300519  0.31085201  0.47156792    -0.11900
C2905       C  0.00803777  0.30137031  0.48543071    -0.03000
C2906       C  0.02181364  0.31502484  0.49720439     0.02500
C2907       C  0.00138642  0.36992534  0.48263472     0.09400
N2908       N  0.97501796  0.34184100  0.45618744     0.65700
H2909       H  0.98234847  0.30099735  0.46204331     0.18600
N2910       N  0.03855800  0.30680437  0.51033113     0.76200
H2911       H  0.02974035  0.34757067  0.50528341     0.10200
C2912       C  0.99212141  0.38054340  0.50011195     0.03900
C2913       C  0.99226877  0.40286605  0.50095349    -0.04900
C2914       C  0.00161089  0.41511720  0.48461685    -0.23300
C2915       C  0.01029326  0.40439389  0.46666301     0.04300
C2916       C  0.01009432  0.38194478  0.46587211    -0.12400
N2917       N  0.98261201  0.36883433  0.51725113     0.64800
H2918       H  0.98531204  0.41062391  0.51481614     0.12600
N2919       N  0.01886070  0.41592540  0.44889820     0.61400
H2920       H  0.01718000  0.37382102  0.45228045     0.08800
O2921       O  0.03618921  0.30642469  0.53038047    -0.40100
O2922       O  0.05707046  0.30549626  0.50265899    -0.39200
O2923       O  0.97862957  0.34286096  0.43635092    -0.39200
O2924       O  0.95616594  0.34370508  0.46282930    -0.36900
O2925       O  0.03870883  0.41879395  0.44770140    -0.37800
O2926       O  0.00753487  0.41847097  0.43238863    -0.34000
O2927       O  0.99260463  0.36685832  0.53468294    -0.35400
O2928       O  0.96285393  0.36521338  0.51679379    -0.39700
C2929       C  0.01632111  0.49101236  0.37472495    -0.13400
C2930       C  0.00314579  0.50618360  0.36486039     0.17000
C2931       C  0.99052637  0.51962192  0.37766158     0.03300
C2932       C  0.99137325  0.51779154  0.39995298    -0.11900
C2933       C  0.00437567  0.50247555  0.41004623    -0.03000
C2934       C  0.01704049  0.48895364  0.39705914     0.02500
C2935       C  0.00162200  0.50643441  0.34122197     0.09400
N2936       N  0.97580891  0.53433813  0.36832385     0.65700
H2937       H  0.98133660  0.52827284  0.40939239     0.18600
N2938       N  0.02998013  0.47242888  0.40605188     0.76200
H2939       H  0.02582645  0.48033540  0.36493491     0.10200
C2940       C  0.01080522  0.52283825  0.32881906     0.03900
C2941       C  0.00983312  0.52175725  0.30645740    -0.04900
C2942       C  0.99982923  0.50451770  0.29594973    -0.23300
C2943       C  0.99051316  0.48812491  0.30856514     0.13100
C2944       C  0.99157454  0.48925316  0.33093064    -0.12400
N2945       N  0.02187943  0.54028421  0.33860728     0.64800
H2946       H  0.01706585  0.53460711  0.29728274     0.12600
N2947       N  0.98046680  0.46988586  0.29910269     0.61400
H2948       H  0.98462516  0.47644665  0.34040150     0.08800
O2949       O  0.04969408  0.47560552  0.40831912    -0.40100
O2950       O  0.02293334  0.45350325  0.40650244    -0.39200
O2951       O  0.95702413  0.52815337  0.36464907    -0.39200
O2952       O  0.97958840  0.55415247  0.36951553    -0.36900
O2953       O  0.99104267  0.45290708  0.29665810    -0.37800
O2954       O  0.96041275  0.46904494  0.29831947    -0.34000
O2955       O  0.04179715  0.53910292  0.34090815    -0.35400
O2956       O  0.01305507  0.55839650  0.33940210    -0.39700
C2957       C  0.49663383  0.83671796  0.52024775    -0.13400
C2958       C  0.49594912  0.84664240  0.50010546     0.17000
C2959       C  0.49469821  0.83379989  0.48157005     0.03300
C2960       C  0.49358792  0.81151424  0.48356490    -0.11900
C2961       C  0.49452238  0.80156105  0.50367681    -0.03000
C2962       C  0.49621383  0.81439933  0.52220625     0.02500
C2963       C  0.49747012  0.87031187  0.49914479     0.09400
N2964       N  0.49624863  0.84287515  0.46063126     0.65700
H2965       H  0.49297524  0.80184775  0.46913238     0.18600
N2966       N  0.49708770  0.80515352  0.54312157     0.76200
H2967       H  0.49769053  0.84643382  0.53462390     0.10200
C2968       C  0.48069242  0.88309180  0.49133184     0.03900
C2969       C  0.48227489  0.90541339  0.49238348    -0.04900
C2970       C  0.50006808  0.91552694  0.50165015    -0.23300
C2971       C  0.51688215  0.90264224  0.50944619     0.13100
C2972       C  0.51547455  0.88030428  0.50796404    -0.12400
N2973       N  0.46126933  0.87379081  0.48381007     0.64800
H2974       H  0.46897320  0.91487877  0.48661997     0.12600
N2975       N  0.53551039  0.91183667  0.51886761     0.61400
H2976       H  0.52843267  0.87060933  0.51414038     0.08800
O2977       O  0.48029670  0.80413419  0.55411498    -0.40100
O2978       O  0.51487412  0.80334299  0.55237000    -0.39200
O2979       O  0.51448990  0.84615650  0.45287176    -0.39200
O2980       O  0.48055154  0.84136728  0.44808281    -0.36900
O2981       O  0.53691254  0.91297698  0.53899058    -0.37800
O2982       O  0.55210753  0.91384550  0.50771086    -0.34000
O2983       O  0.44686887  0.86944979  0.49717984    -0.35400
O2984       O  0.45630633  0.87580561  0.46432819    -0.39700
C2985       C  0.61657391  0.99817486  0.52406091    -0.13400
C2986       C  0.62676003  0.00157411  0.50437553     0.17000
C2987       C  0.61421284  0.00427591  0.48579451     0.03300
C2988       C  0.59196677  0.00401254  0.48734967    -0.11900
C2989       C  0.58173570  0.00048321  0.50702102    -0.03000
C2990       C  0.59431518  0.99748518  0.52553628     0.02500
C2991       C  0.65040603  0.00112824  0.50368372     0.09400
N2992       N  0.62367174  0.00589797  0.46506852     0.65700
H2993       H  0.58258925  0.00588084  0.47284415     0.18600
N2994       N  0.58481134  0.99452181  0.54606812     0.76200
H2995       H  0.62603802  0.99602302  0.53846545     0.10200
C2996       C  0.66261133  0.01926868  0.49810621     0.03900
C2997       C  0.68485889  0.01803732  0.49814640    -0.04900
C2998       C  0.69552458  0.99917905  0.50413068    -0.23300
C2999       C  0.68324880  0.98118945  0.51026339     0.13100
C3000       C  0.66095828  0.98230998  0.50983125    -0.12400
N3001       N  0.65283476  0.03944023  0.49367127     0.64800
H3002       H  0.69388198  0.03227368  0.49399235     0.12600
N3003       N  0.69300662  0.96150505  0.51650355     0.61400
H3004       H  0.65175492  0.96830034  0.51437251     0.08800
O3005       O  0.58220929  0.01053013  0.55808895    -0.40100
O3006       O  0.58382744  0.97594063  0.55396387    -0.39200
O3007       O  0.62803159  0.98893032  0.45504624    -0.39200
O3008       O  0.62191516  0.02318066  0.45473850    -0.36900
O3009       O  0.69449842  0.95700410  0.53614717    -0.37800
O3010       O  0.69511645  0.94680020  0.50283434    -0.34000
O3011       O  0.64863674  0.05175068  0.50909794    -0.35400
O3012       O  0.65435698  0.04725879  0.47510439    -0.39700
C3013       C  0.48332620  0.00889034  0.62301696    -0.13400
C3014       C  0.50143193  0.00070489  0.63332717     0.17000
C3015       C  0.51748305  0.99109308  0.62084353     0.03300
C3016       C  0.51541926  0.99036083  0.59857051    -0.11900
C3017       C  0.49754143  0.99896701  0.58811989    -0.03000
C3018       C  0.48121166  0.00813613  0.60068944     0.02500
C3019       C  0.50265168  0.00114816  0.65709988     0.09400
N3020       N  0.53621975  0.98233874  0.63044320     0.65700
H3021       H  0.52821847  0.98324798  0.58937630     0.18600
N3022       N  0.46199335  0.01593344  0.59124685     0.76200
H3023       H  0.47040883  0.01547782  0.63242624     0.10200
C3024       C  0.49994866  0.02029472  0.66881628     0.03900
C3025       C  0.50041033  0.01982915  0.69120691    -0.04900
C3026       C  0.50371714  0.00061996  0.70237202    -0.23300
C3027       C  0.50599922  0.98142061  0.69070878     0.13100
C3028       C  0.50536509  0.98186174  0.66831255    -0.12400
N3029       N  0.49728760  0.04043416  0.65826939     0.64800
H3030       H  0.49865104  0.03475429  0.69993077     0.12600
N3031       N  0.50754528  0.96119159  0.70129311     0.61400
H3032       H  0.50638564  0.96686102  0.65962303     0.08800
O3033       O  0.45932528  0.03586009  0.58924449    -0.40100
O3034       O  0.44612957  0.00358995  0.58978931    -0.39200
O3035       O  0.53797166  0.96227359  0.63212270    -0.39200
O3036       O  0.55267573  0.99385449  0.63193459    -0.36900
O3037       O  0.49069593  0.95122179  0.70595954    -0.37800
O3038       O  0.52491493  0.95111646  0.70078821    -0.34000
O3039       O  0.47914546  0.04906995  0.65797181    -0.35400
O3040       O  0.51348401  0.05169804  0.65424550    -0.39700
C3041       C  0.47609682  0.11477382  0.49992122    -0.13400
C3042       C  0.49544966  0.12596058  0.49957981     0.17000
C3043       C  0.51470928  0.11451763  0.50077551     0.03300
C3044       C  0.51428893  0.09217926  0.50203152    -0.11900
C3045       C  0.49494962  0.08092634  0.50255915    -0.03000
C3046       C  0.47565546  0.09241701  0.50140466     0.02500
C3047       C  0.49497585  0.14957315  0.50004266     0.09400
N3048       N  0.53474512  0.12532070  0.50187538     0.65700
H3049       H  0.52925464  0.08357256  0.50314185     0.18600
N3050       N  0.45557573  0.08166223  0.50073964     0.76200
H3051       H  0.46119641  0.12352304  0.49912459     0.10200
C3052       C  0.50056573  0.16214420  0.48223518     0.03900
C3053       C  0.49964441  0.18449909  0.48367316    -0.04900
C3054       C  0.49275532  0.19478681  0.50249538    -0.23300
C3055       C  0.48639111  0.18188204  0.51998743     0.13100
C3056       C  0.48777540  0.15958125  0.51862894    -0.12400
N3057       N  0.50612330  0.15250749  0.46228575     0.64800
H3058       H  0.50394253  0.19384450  0.46968178     0.12600
N3059       N  0.47854905  0.19082745  0.53936739     0.61400
H3060       H  0.48311064  0.14991405  0.53230216     0.08800
O3061       O  0.44713429  0.07769752  0.48282139    -0.40100
O3062       O  0.44425901  0.08100668  0.51738600    -0.39200
O3063       O  0.54275046  0.12927688  0.51999483    -0.39200
O3064       O  0.54663325  0.12542639  0.48563251    -0.36900
O3065       O  0.49170566  0.19555237  0.55390650    -0.37800
O3066       O  0.45949229  0.18699720  0.54444054    -0.34000
O3067       O  0.49165995  0.14885547  0.44871308    -0.35400
O3068       O  0.52524637  0.15296669  0.45620347    -0.39700
C3069       C  0.33614637  0.97757659  0.50376264    -0.13400
C3070       C  0.34678325  0.99702863  0.50694296     0.17000
C3071       C  0.33479290  0.01587401  0.50968818     0.03300
C3072       C  0.31254145  0.01475536  0.51003963    -0.11900
C3073       C  0.30175481  0.99522641  0.50703440    -0.03000
C3074       C  0.31389761  0.97651659  0.50353471     0.02500
C3075       C  0.37033598  0.99720779  0.50623232     0.09400
N3076       N  0.34482166  0.03640909  0.51068457     0.65700
H3077       H  0.30362879  0.02949419  0.51199432     0.18600
N3078       N  0.30408245  0.95625657  0.49978128     0.76200
H3079       H  0.34525199  0.96302363  0.50131283     0.10200
C3080       C  0.38275498  0.00158356  0.52451844     0.03900
C3081       C  0.40497304  0.00116464  0.52311358    -0.04900
C3082       C  0.41530167  0.99574533  0.50391501    -0.23300
C3083       C  0.40273618  0.99055389  0.48581752     0.13100
C3084       C  0.38049934  0.99155174  0.48711041    -0.12400
N3085       N  0.37313258  0.00503683  0.54493168     0.64800
H3086       H  0.41422297  0.00459590  0.53740642     0.12600
N3087       N  0.41215765  0.98461027  0.46591125     0.61400
H3088       H  0.37103548  0.98775890  0.47304914     0.08800
O3089       O  0.30016119  0.94420162  0.51551073    -0.40100
O3090       O  0.30502519  0.94827710  0.48125374    -0.39200
O3091       O  0.34853591  0.04627664  0.49345215    -0.39200
O3092       O  0.34429680  0.04681731  0.52797581    -0.36900
O3093       O  0.41377425  0.99841935  0.45124474    -0.37800
O3094       O  0.41370222  0.96501367  0.46124839    -0.34000
O3095       O  0.36934364  0.98909314  0.55676098    -0.35400
O3096       O  0.37389329  0.02344449  0.55321150    -0.39700
C3097       C  0.51835408  0.00826965  0.38808902    -0.13400
C3098       C  0.49974085  0.00267173  0.37703134     0.17000
C3099       C  0.48157047  0.99647494  0.38868787     0.03300
C3100       C  0.48240408  0.99569508  0.41101566    -0.11900
C3101       C  0.50105113  0.00118909  0.42217939    -0.03000
C3102       C  0.51917092  0.00772512  0.41045318     0.02500
C3103       C  0.50028463  0.00135466  0.35341432     0.09400
N3104       N  0.46205243  0.99126204  0.37810005     0.65700
H3105       H  0.46818856  0.99098734  0.41968611     0.18600
N3106       N  0.53882730  0.01282239  0.42083098     0.76200
H3107       H  0.53263944  0.01241936  0.37925999     0.10200
C3108       C  0.50593746  0.01909279  0.34067257     0.03900
C3109       C  0.50743087  0.01679260  0.31850122    -0.04900
C3110       C  0.50373514  0.99695978  0.30860021    -0.23300
C3111       C  0.49883269  0.97899574  0.32147740     0.13100
C3112       C  0.49689622  0.98144675  0.34364152    -0.12400
N3113       N  0.50996447  0.03961408  0.34994332     0.64800
H3114       H  0.51116445  0.03081935  0.30893791     0.12600
N3115       N  0.49739306  0.95793091  0.31264710     0.61400
H3116       H  0.49359290  0.96745549  0.35342988     0.08800
O3117       O  0.54452983  0.03215802  0.42227208    -0.40100
O3118       O  0.55242492  0.99824508  0.42369429    -0.39200
O3119       O  0.45611363  0.97196705  0.37715477    -0.39200
O3120       O  0.44875983  0.00592355  0.37435435    -0.36900
O3121       O  0.51433208  0.94787446  0.30868620    -0.37800
O3122       O  0.48024373  0.94757322  0.31451877    -0.34000
O3123       O  0.52893023  0.04606114  0.35176134    -0.35400
O3124       O  0.49499893  0.05299929  0.35111323    -0.39700
C3125       C  0.49245913  0.61659783  0.01770145    -0.13400
C3126       C  0.49806652  0.62733132  0.99880355     0.17000
C3127       C  0.50498388  0.61521144  0.98107961     0.03300
C3128       C  0.50595758  0.59285449  0.98248521    -0.11900
C3129       C  0.50024384  0.58204388  0.00134652    -0.03000
C3130       C  0.49355508  0.59423413  0.01919232     0.02500
C3131       C  0.49875062  0.65114082  0.99879012     0.09400
N3132       N  0.51082795  0.62532186  0.96142345     0.65700
H3133       H  0.51105199  0.58387649  0.96853646     0.18600
N3134       N  0.48912567  0.58436349  0.03934860     0.76200
H3135       H  0.48796168  0.62573113  0.03176080     0.10200
C3136       C  0.48086448  0.66358814  0.00434740     0.03900
C3137       C  0.48287774  0.68584287  0.00654420    -0.04900
C3138       C  0.50243671  0.69619852  0.00306973    -0.23300
C3139       C  0.52024342  0.68371157  0.99717287     0.13100
C3140       C  0.51824827  0.66146359  0.99523028    -0.12400
N3141       N  0.46046787  0.65392359  0.00743583     0.64800
H3142       H  0.46888820  0.69512550  0.01069639     0.12600
N3143       N  0.54078077  0.69313390  0.99434429     0.61400
H3144       H  0.53232676  0.65207176  0.99167277     0.08800
O3145       O  0.47006883  0.58220199  0.04530483    -0.40100
O3146       O  0.50392085  0.58237372  0.05290202    -0.39200
O3147       O  0.53025952  0.62683867  0.95658017    -0.39200
O3148       O  0.49693733  0.62772658  0.94700663    -0.36900
O3149       O  0.55311498  0.69476702  0.01023276    -0.37800
O3150       O  0.54820680  0.69517648  0.97570184    -0.34000
O3151       O  0.45308731  0.65224823  0.02613139    -0.35400
O3152       O  0.44810917  0.65179919  0.99162347    -0.39700
C3153       C  0.66335291  0.48316290  0.00913163    -0.13400
C3154       C  0.65251973  0.49020621  0.99080741     0.17000
C3155       C  0.66444552  0.49752296  0.97312502     0.03300
C3156       C  0.68666402  0.49785704  0.97419245    -0.11900
C3157       C  0.69759475  0.49098752  0.99257795    -0.03000
C3158       C  0.68558999  0.48329333  0.01018036     0.02500
C3159       C  0.62893868  0.49170402  0.99138073     0.09400
N3160       N  0.65430468  0.50449219  0.95385037     0.65700
H3161       H  0.69541414  0.50346526  0.96030435     0.18600
N3162       N  0.69550455  0.47638466  0.02960409     0.76200
H3163       H  0.65444576  0.47817430  0.02316007     0.10200
C3164       C  0.61610214  0.47420113  0.99760894     0.03900
C3165       C  0.59418957  0.47696532  0.00018470    -0.04900
C3166       C  0.58446580  0.49681392  0.99627444    -0.23300
C3167       C  0.59725896  0.51423317  0.98964019     0.13100
C3168       C  0.61926682  0.51158234  0.98759507    -0.12400
N3169       N  0.62493520  0.45337024  0.00086123     0.64800
H3170       H  0.58463169  0.46324235  0.00486899     0.12600
N3171       N  0.58839437  0.53492677  0.98572886     0.61400
H3172       H  0.62895374  0.52541794  0.98359418     0.08800
O3173       O  0.69762454  0.45659100  0.03309588    -0.40100
O3174       O  0.69711714  0.48933636  0.04502277    -0.39200
O3175       O  0.65365216  0.52425850  0.94966443    -0.39200
O3176       O  0.65145436  0.49119641  0.93891394    -0.36900
O3177       O  0.58864265  0.54870169  0.00049680    -0.37800
O3178       O  0.58539384  0.54094696  0.96667109    -0.34000
O3179       O  0.62657835  0.44613039  0.01966039    -0.35400
O3180       O  0.62569836  0.44053379  0.98529405    -0.39700
C3181       C  0.49093852  0.48342405  0.88375224    -0.13400
C3182       C  0.50755158  0.49450132  0.87365528     0.17000
C3183       C  0.52230468  0.50591396  0.88631791     0.03300
C3184       C  0.52014761  0.50616590  0.90855463    -0.11900
C3185       C  0.50350528  0.49516921  0.91879549    -0.03000
C3186       C  0.48880376  0.48354182  0.90606629     0.02500
C3187       C  0.50804497  0.49561212  0.84994186     0.09400
N3188       N  0.53976852  0.51714047  0.87689083     0.65700
H3189       H  0.53182654  0.51499701  0.91787294     0.18600
N3190       N  0.47110771  0.47252813  0.91529678     0.76200
H3191       H  0.47905010  0.47515834  0.87418713     0.10200
C3192       C  0.50776662  0.47701269  0.83712293     0.03900
C3193       C  0.50676712  0.47888681  0.81484167    -0.04900
C3194       C  0.50623937  0.49901770  0.80489416    -0.23300
C3195       C  0.50633052  0.51762323  0.81768140     0.13100
C3196       C  0.50716043  0.51573469  0.83998440    -0.12400
N3197       N  0.50903537  0.45613285  0.84640901     0.64800
H3198       H  0.50681755  0.46442492  0.80519360     0.12600
N3199       N  0.50409950  0.53844645  0.80847507     0.61400
H3200       H  0.50635952  0.53015237  0.84964352     0.08800
O3201       O  0.47164930  0.45238545  0.91686360    -0.40100
O3202       O  0.45344807  0.48200758  0.91664958    -0.39200
O3203       O  0.53929310  0.53732678  0.87598073    -0.39200
O3204       O  0.55732582  0.50763145  0.87470323    -0.36900
O3205       O  0.51925810  0.55160806  0.81018031    -0.37800
O3206       O  0.48566019  0.54541879  0.80455474    -0.34000
O3207       O  0.49260887  0.44448171  0.84687796    -0.35400
O3208       O  0.52705707  0.44761649  0.84896635    -0.39700
C3209       C  0.51106717  0.48740408  0.12052725    -0.13400
C3210       C  0.50529046  0.50688111  0.13001156     0.17000
C3211       C  0.49967768  0.52429510  0.11674414     0.03300
C3212       C  0.49930370  0.52165869  0.09448634    -0.11900
C3213       C  0.50515820  0.50217002  0.08497815    -0.03000
C3214       C  0.51132697  0.48497628  0.09827820     0.02500
C3215       C  0.50629724  0.50851957  0.15368110     0.09400
N3216       N  0.49578406  0.54510473  0.12537020     0.65700
H3217       H  0.49506020  0.53524807  0.08451262     0.18600
N3218       N  0.51706637  0.46466687  0.08959451     0.76200
H3219       H  0.51550510  0.47391071  0.13054567     0.10200
C3220       C  0.48807848  0.51226689  0.16628205     0.03900
C3221       C  0.48976120  0.51209544  0.18863732    -0.04900
C3222       C  0.50917390  0.50763797  0.19889790    -0.23300
C3223       C  0.52734411  0.50370985  0.18625076     0.13100
C3224       C  0.52576917  0.50437278  0.16390205    -0.12400
N3225       N  0.46750868  0.51477949  0.15680516     0.64800
H3226       H  0.47550176  0.51464316  0.19805794     0.12600
N3227       N  0.54761739  0.49953010  0.19574716     0.61400
H3228       H  0.53987579  0.50134418  0.15438616     0.08800
O3229       O  0.50351805  0.44974228  0.08970426    -0.40100
O3230       O  0.53650052  0.46017000  0.08731172    -0.39200
O3231       O  0.51142223  0.55736114  0.12876153    -0.39200
O3232       O  0.47748436  0.55317145  0.12341869    -0.36900
O3233       O  0.55439952  0.48053179  0.19648085    -0.37800
O3234       O  0.56052434  0.51481326  0.19837401    -0.34000
O3235       O  0.45675789  0.49826432  0.15239315    -0.35400
O3236       O  0.45803811  0.53247722  0.15868817    -0.39700
C3237       C  0.38593879  0.49519561  0.98315922    -0.13400
C3238       C  0.37570366  0.50262050  0.00157841     0.17000
C3239       C  0.38780275  0.50798635  0.01976756     0.03300
C3240       C  0.40993959  0.50659076  0.01899477    -0.11900
C3241       C  0.42038683  0.49935611  0.00051589    -0.03000
C3242       C  0.40808674  0.49332652  0.98247807     0.02500
C3243       C  0.35231060  0.50310393  0.00186000     0.09400
N3244       N  0.37785292  0.51361585  0.03951048     0.65700
H3245       H  0.41898587  0.51073573  0.03323327     0.18600
N3246       N  0.41768932  0.48568056  0.96324150     0.76200
H3247       H  0.37659947  0.49066811  0.96922410     0.10200
C3248       C  0.34087927  0.52245911  0.00153221     0.03900
C3249       C  0.31864547  0.52196660  0.00137275    -0.04900
C3250       C  0.30753837  0.50244227  0.00098255    -0.23300
C3251       C  0.31910855  0.48307648  0.00108898     0.13100
C3252       C  0.34132585  0.48362467  0.00157157    -0.12400
N3253       N  0.35154730  0.54263013  0.00002778     0.64800
H3254       H  0.30999584  0.53699791  0.00083906     0.12600
N3255       N  0.30873360  0.46272412  0.00138318     0.61400
H3256       H  0.35013020  0.46867560  0.00181219     0.08800
O3257       O  0.42009590  0.49839840  0.94772692    -0.40100
O3258       O  0.41856561  0.46576568  0.95992032    -0.39200
O3259       O  0.37389025  0.49905054  0.05294483    -0.39200
O3260       O  0.37848472  0.53282144  0.04573260    -0.36900
O3261       O  0.31225897  0.44979674  0.98630025    -0.37800
O3262       O  0.30191247  0.45553544  0.01896330    -0.34000
O3263       O  0.35536461  0.55033459  0.98175262    -0.35400
O3264       O  0.35192561  0.55485617  0.01609109    -0.39700
C3265       C  0.50502579  0.38133052  0.02477118    -0.13400
C3266       C  0.49592340  0.37052478  0.00735728     0.17000
C3267       C  0.48838143  0.38242150  0.98975764     0.03300
C3268       C  0.49026284  0.40469720  0.98974488    -0.11900
C3269       C  0.49952692  0.41566165  0.00706358    -0.03000
C3270       C  0.50689519  0.40367711  0.02482336     0.02500
C3271       C  0.49313866  0.34702086  0.00850247     0.09400
N3272       N  0.47915352  0.37210886  0.97155327     0.65700
H3273       H  0.48455731  0.41344151  0.97585102     0.18600
N3274       N  0.51506587  0.41386517  0.04357448     0.76200
H3275       H  0.51021217  0.37236807  0.03873651     0.10200
C3276       C  0.51062419  0.33319203  0.01111272     0.03900
C3277       C  0.50726747  0.31113851  0.01302309    -0.04900
C3278       C  0.48665564  0.30239069  0.01243319    -0.23300
C3279       C  0.46909813  0.31637651  0.01038637     0.13100
C3280       C  0.47253734  0.33844676  0.00829744    -0.12400
N3281       N  0.53192079  0.34124091  0.01119204     0.64800
H3282       H  0.52101421  0.30071904  0.01443636     0.12600
N3283       N  0.44769436  0.30877831  0.01170283     0.61400
H3284       H  0.45893062  0.34908679  0.00716870     0.08800
O3285       O  0.53489792  0.41412688  0.04679126    -0.40100
O3286       O  0.50266733  0.41715878  0.05906702    -0.39200
O3287       O  0.45928240  0.37304731  0.96873376    -0.39200
O3288       O  0.49095350  0.36702239  0.95606554    -0.36900
O3289       O  0.44013638  0.30432667  0.02987177    -0.37800
O3290       O  0.43505532  0.31285822  0.99652307    -0.34000
O3291       O  0.54186239  0.34280574  0.02869886    -0.35400
O3292       O  0.54209104  0.34223771  0.99382982    -0.39700
loop_ 
_geom_bond_atom_site_label_1 
_geom_bond_atom_site_label_2 
_geom_bond_distance 
_geom_bond_site_symmetry_2 
_ccdc_geom_bond_type 
Zn1           O5   1.961   1_556  S
Zn1           O6   2.001       .  S
Zn1          O10   2.015       .  S
Zn1          O17   2.005       .  S
Zn2           O5   1.963       .  S
Zn2           O7   2.017       .  S
Zn2           O9   2.025       .  S
Zn2          O13   2.026       .  S
Zn3           O5   1.952   1_556  S
Zn3           O8   2.016       .  S
Zn3          O11   2.017       .  S
Zn3          O14   2.024       .  S
Zn4           O5   1.945       .  S
Zn4          O12   2.016       .  S
Zn4          O15   2.005       .  S
Zn4          O16   2.003       .  S
O6           C18   1.273   1_556  A
O7           C19   1.276   1_554  A
O8           C20   1.275       .  A
O9           C18   1.273       .  A
O10          C20   1.272       .  A
O11          C19   1.273       .  A
O12          C21   1.272       .  A
O13          C22   1.274       .  A
O14          C21   1.275   1_556  A
O15          C22   1.273       .  A
O16          C23   1.274       .  A
O17          C23   1.271   1_556  A
C18        C3269   1.484       .  S
C19        C3166   1.482       .  S
C20        C3185   1.486       .  S
C21        C3129   1.487       .  S
C22        C3213   1.481       .  S
C23        C3241   1.478       .  S
Zn24         O28   1.968       .  S
Zn24         O29   2.035       .  S
Zn24         O33   2.019       .  S
Zn24         O40   2.046       .  S
Zn25         O28   1.958       .  S
Zn25         O30   2.039       .  S
Zn25         O32   2.007       .  S
Zn25         O36   2.010       .  S
Zn26         O28   1.964   1_545  S
Zn26         O31   2.026       .  S
Zn26         O34   2.006       .  S
Zn26         O37   2.026       .  S
Zn27         O28   1.953   1_545  S
Zn27         O35   1.999       .  S
Zn27         O38   2.007       .  S
Zn27         O39   2.008       .  S
O29          C41   1.276       .  A
O30          C42   1.274       .  A
O31          C43   1.275   1_545  A
O32          C41   1.275       .  A
O33          C43   1.276       .  A
O34          C42   1.272   1_545  A
O35          C44   1.272       .  A
O36          C45   1.274   1_565  A
O37          C44   1.274       .  A
O38          C45   1.271       .  A
O39          C46   1.272   1_545  A
O40          C46   1.275       .  A
C41        C2970   1.487       .  S
C42        C3082   1.487       .  S
C43        C3017   1.488       .  S
C44        C3045   1.475       .  S
C45        C3101   1.480       .  S
C46        C2989   1.485   1_565  S
Zn47         O51   1.964   1_655  S
Zn47         O52   2.011       .  S
Zn47         O56   2.005       .  S
Zn47         O63   2.022       .  S
Zn48         O51   1.980       .  S
Zn48         O53   2.021       .  S
Zn48         O55   2.018       .  S
Zn48         O59   2.032       .  S
Zn49         O51   1.946   1_655  S
Zn49         O54   2.019       .  S
Zn49         O57   2.017       .  S
Zn49         O60   2.020       .  S
Zn50         O51   1.955       .  S
Zn50         O58   2.040       .  S
Zn50         O61   2.024       .  S
Zn50         O62   2.018       .  S
O52          C64   1.275   1_655  A
O53          C65   1.273       .  A
O54          C66   1.275       .  A
O55          C64   1.273       .  A
O56          C66   1.270       .  A
O57          C65   1.276   1_655  A
O58          C67   1.275   1_455  A
O59          C68   1.275       .  A
O60          C67   1.274       .  A
O61          C68   1.277       .  A
O62          C69   1.275   1_455  A
O63          C69   1.273       .  A
C64        C2914   1.484       .  S
C65        C2933   1.490       .  S
C66        C2821   1.487       .  S
C67        C2793   1.490       .  S
C68        C2877   1.488       .  S
C69        C2849   1.484       .  S
Zn70         O74   1.958   1_654  S
Zn70         O75   2.019       .  S
Zn70         O79   2.027       .  S
Zn70         O86   2.026       .  S
Zn71         O74   1.971       .  S
Zn71         O76   2.017       .  S
Zn71         O78   2.020       .  S
Zn71         O82   2.021       .  S
Zn72         O74   1.965   1_564  S
Zn72         O77   2.029       .  S
Zn72         O80   2.021       .  S
Zn72         O83   2.027       .  S
Zn73         O74   1.953   1_665  S
Zn73         O81   2.012       .  S
Zn73         O84   2.023       .  S
Zn73         O85   1.999       .  S
O75          C87   1.276   1_655  A
O76          C88   1.273       .  A
O77          C89   1.273   1_565  A
O78          C87   1.274   1_556  A
O79          C89   1.275   1_655  A
O80          C88   1.277   1_564  A
O81          C90   1.274   1_655  A
O82          C91   1.273       .  A
O83          C90   1.274   1_554  A
O84          C91   1.274   1_665  A
O85          C92   1.272   1_565  A
O86          C92   1.274   1_554  A
C87        C2709   1.487       .  S
C88        C2746   1.487       .  S
C89        C2765   1.491       .  S
C90        C2662   1.484   1_455  S
C91        C2690   1.482   1_455  S
C92        C2625   1.486       .  S
C93        C2597   1.478       .  S
C93          N94   1.357       .  A
C93          N98   1.355   1_554  A
N94          C95   1.356   1_554  A
C95        C3157   1.487       .  S
C95          N96   1.362       .  A
N96          C97   1.359       .  A
C97        C2578   1.484       .  S
C97          N98   1.359       .  A
C99        C2513   1.483       .  S
C99         N100   1.355       .  A
C99         N104   1.357   1_554  A
N100        C101   1.359       .  A
C101       C3250   1.474       .  S
C101        N102   1.361   1_554  A
N102        C103   1.361       .  A
C103       C2550   1.495       .  S
C103        N104   1.359       .  A
C105       C2485   1.487       .  S
C105        N106   1.361       .  A
C105        N110   1.363       .  A
N106        C107   1.354       .  A
C107       C2942   1.490       .  S
C107        N108   1.357   1_655  A
N108        C109   1.358       .  A
C109       C2457   1.481       .  S
C109        N110   1.362   1_455  A
C111       C2401   1.491       .  S
C111        N112   1.356   1_655  A
C111        N116   1.361       .  A
N112        C113   1.361   1_554  A
C113       C2429   1.487       .  S
C113        N114   1.357       .  A
N114        C115   1.359   1_556  A
C115       C2718   1.481       .  S
C115        N116   1.358   1_455  A
C117       C2345   1.496       .  S
C117        N118   1.358       .  A
C117        N122   1.353       .  A
N118        C119   1.361       .  A
C119       C2858   1.499       .  S
C119        N120   1.365   1_655  A
N120        C121   1.365       .  A
C121       C2373   1.493       .  S
C121        N122   1.361   1_455  A
Zn123       O127   1.975       .  S
Zn123       O128   2.018       .  S
Zn123       O132   2.033       .  S
Zn123       O139   2.050       .  S
Zn124       O127   1.974       .  S
Zn124       O129   2.006       .  S
Zn124       O131   2.013       .  S
Zn124       O135   2.054       .  S
Zn125       O127   1.964       .  S
Zn125       O130   1.992       .  S
Zn125       O133   2.030       .  S
Zn125       O136   2.043       .  S
Zn126       O127   1.916       .  S
Zn126       O134   1.987       .  S
Zn126       O137   1.987       .  S
Zn126       O138   1.975       .  S
O128        C140   1.277       .  A
O129        C141   1.275       .  A
O130        C142   1.273       .  A
O131        C140   1.273       .  A
O132        C142   1.275       .  A
O133        C141   1.276       .  A
O134        C143   1.270       .  A
O135        C144   1.274       .  A
O136        C143   1.273       .  A
O137        C144   1.271       .  A
O138        C145   1.270       .  A
O139        C145   1.274       .  A
C140       C2382   1.488       .  S
C141       C2541   1.490       .  S
C142       C2438   1.488       .  S
C143       C2298   1.473       .  S
C144       C2317   1.484       .  S
C145       C2261   1.478       .  S
C146       C2242   1.496       .  S
C146        N147   1.361       .  A
C146        N151   1.364       .  A
N147        C148   1.355   1_656  A
C148       C2205   1.480       .  S
C148        N149   1.356       .  A
N149        C150   1.363   1_454  A
C150       C2653   1.488       .  S
C150        N151   1.364       .  A
Zn152       O156   1.972       .  S
Zn152       O157   2.011       .  S
Zn152       O161   2.032       .  S
Zn152       O168   2.041       .  S
Zn153       O156   1.986       .  S
Zn153       O158   2.027       .  S
Zn153       O160   2.024       .  S
Zn153       O164   2.041       .  S
Zn154       O156   1.952       .  S
Zn154       O159   2.005       .  S
Zn154       O162   2.020       .  S
Zn154       O165   2.038       .  S
Zn155       O156   1.926       .  S
Zn155       O163   1.998       .  S
Zn155       O166   1.963       .  S
Zn155       O167   2.000       .  S
O157        C169   1.276       .  A
O158        C170   1.275       .  A
O159        C171   1.275       .  A
O160        C169   1.275       .  A
O161        C171   1.274       .  A
O162        C170   1.276       .  A
O163        C172   1.270       .  A
O164        C173   1.273       .  A
O165        C172   1.273       .  A
O166        C173   1.269       .  A
O167        C174   1.273       .  A
O168        C174   1.274       .  A
C169       C2233   1.489       .  S
C170       C2354   1.492       .  S
C171       C2569   1.490       .  S
C172       C2177   1.473       .  S
C173       C2121   1.478       .  S
C174       C2149   1.487       .  S
Zn175       O179   1.959       .  S
Zn175       O180   2.021       .  S
Zn175       O184   2.005       .  S
Zn175       O191   2.014       .  S
Zn176       O179   1.954       .  S
Zn176       O181   2.000       .  S
Zn176       O183   2.016       .  S
Zn176       O187   2.001       .  S
Zn177       O179   1.959       .  S
Zn177       O182   2.023       .  S
Zn177       O185   2.024       .  S
Zn177       O188   2.034       .  S
Zn178       O179   1.963       .  S
Zn178       O186   2.015       .  S
Zn178       O189   2.031       .  S
Zn178       O190   2.019       .  S
O180        C192   1.275       .  A
O181        C193   1.271       .  A
O182        C194   1.275       .  A
O183        C192   1.271       .  A
O184        C194   1.272       .  A
O185        C193   1.275       .  A
O186        C195   1.274       .  A
O187        C196   1.274       .  A
O188        C195   1.276       .  A
O189        C196   1.273       .  A
O190        C197   1.275       .  A
O191        C197   1.273       .  A
C192       C2093   1.492       .  S
C193       C2606   1.481       .  S
C194       C2494   1.477       .  S
C195       C2410   1.478       .  S
C196       C2065   1.490       .  S
C197       C2046   1.485       .  S
Zn198       O202   1.956       .  S
Zn198       O203   2.028       .  S
Zn198       O207   2.038       .  S
Zn198       O214   1.995       .  S
Zn199       O202   1.948       .  S
Zn199       O204   2.012       .  S
Zn199       O206   2.007       .  S
Zn199       O210   2.014       .  S
Zn200       O202   1.953       .  S
Zn200       O205   2.018       .  S
Zn200       O208   1.998       .  S
Zn200       O211   1.979       .  S
Zn201       O202   1.980       .  S
Zn201       O209   2.060       .  S
Zn201       O212   2.041       .  S
Zn201       O213   2.055       .  S
O203        C215   1.273       .  A
O204        C216   1.274       .  A
O205        C217   1.271       .  A
O206        C215   1.274       .  A
O207        C217   1.276       .  A
O208        C216   1.269       .  A
O209        C218   1.278       .  A
O210        C219   1.272       .  A
O211        C218   1.272       .  A
O212        C219   1.278       .  A
O213        C220   1.278       .  A
O214        C220   1.274       .  A
C215       C1962   1.481       .  S
C216       C1981   1.485       .  S
C217       C2009   1.491       .  S
C218       C2522   1.484       .  S
C219       C2214   1.495       .  S
C220       C2466   1.488       .  S
C221       C1897   1.499       .  S
C221        N222   1.358       .  A
C221        N226   1.359       .  A
N222        C223   1.365   1_554  A
C223       C1934   1.494       .  S
C223        N224   1.362       .  A
N224        C225   1.359   1_556  A
C225       C3278   1.482       .  S
C225        N226   1.357       .  A
C227       C1869   1.487       .  S
C227        N228   1.362       .  A
C227        N232   1.361       .  A
N228        C229   1.359   1_554  A
C229       C1841   1.489       .  S
C229        N230   1.360       .  A
N230        C231   1.357   1_556  A
C231       C3138   1.486       .  S
C231        N232   1.360       .  A
C233       C1813   1.484       .  S
C233        N234   1.358       .  A
C233        N238   1.357       .  A
N234        C235   1.360       .  A
C235       C3110   1.479       .  S
C235        N236   1.362   1_565  A
N236        C237   1.357       .  A
C237       C1794   1.494       .  S
C237        N238   1.357   1_545  A
C239       C1757   1.483       .  S
C239        N240   1.360   1_545  A
C239        N244   1.361       .  A
N240        C241   1.356   1_556  A
C241       C1729   1.488       .  S
C241        N242   1.359       .  A
N242        C243   1.359   1_554  A
C243       C2737   1.478       .  S
C243        N244   1.360   1_565  A
C245       C1701   1.478       .  S
C245        N246   1.355       .  A
C245        N250   1.355   1_565  A
N246        C247   1.356   1_565  A
C247       C2634   1.474       .  S
C247        N248   1.361   1_556  A
N248        C249   1.362       .  A
C249       C1673   1.491       .  S
C249        N250   1.362   1_554  A
Zn251       O255   1.962       .  S
Zn251       O256   2.003       .  S
Zn251       O260   2.010       .  S
Zn251       O267   2.039       .  S
Zn252       O255   1.977       .  S
Zn252       O257   2.038       .  S
Zn252       O259   2.058       .  S
Zn252       O263   2.050       .  S
Zn253       O255   1.963       .  S
Zn253       O258   2.002       .  S
Zn253       O261   1.986       .  S
Zn253       O264   2.005       .  S
Zn254       O255   1.947       .  S
Zn254       O262   2.032       .  S
Zn254       O265   2.015       .  S
Zn254       O266   2.031       .  S
O256        C268   1.273       .  A
O257        C269   1.277       .  A
O258        C270   1.270       .  A
O259        C268   1.280       .  A
O260        C270   1.274       .  A
O261        C269   1.269       .  A
O262        C271   1.276       .  A
O263        C272   1.277       .  A
O264        C271   1.270       .  A
O265        C272   1.276       .  A
O266        C273   1.276       .  A
O267        C273   1.274       .  A
C268       C1850   1.487       .  S
C269       C1710   1.487       .  S
C270       C2158   1.485       .  S
C271       C1589   1.491       .  S
C272       C1645   1.488       .  S
C273       C1617   1.497       .  S
C274       C1654   1.486       .  S
C274        N275   1.364   1_565  A
C274        N279   1.360       .  A
N275        C276   1.360       .  A
C276       C1561   1.485       .  S
C276        N277   1.358       .  A
N277        C278   1.356       .  A
C278       C3026   1.478       .  S
C278        N279   1.357   1_545  A
Zn280       O284   1.974       .  S
Zn280       O285   2.030       .  S
Zn280       O289   2.029       .  S
Zn280       O296   2.045       .  S
Zn281       O284   1.955       .  S
Zn281       O286   2.004       .  S
Zn281       O288   2.007       .  S
Zn281       O292   2.048       .  S
Zn282       O284   1.963       .  S
Zn282       O287   2.009       .  S
Zn282       O290   2.034       .  S
Zn282       O293   2.042       .  S
Zn283       O284   1.936       .  S
Zn283       O291   1.987       .  S
Zn283       O294   1.966       .  S
Zn283       O295   2.002       .  S
O285        C297   1.275       .  A
O286        C298   1.273       .  A
O287        C299   1.275       .  A
O288        C297   1.275       .  A
O289        C299   1.275       .  A
O290        C298   1.274       .  A
O291        C300   1.270       .  A
O292        C301   1.274       .  A
O293        C300   1.276       .  A
O294        C301   1.267       .  A
O295        C302   1.271       .  A
O296        C302   1.277       .  A
C297       C1570   1.484       .  S
C298       C1766   1.489       .  S
C299       C1925   1.489       .  S
C300       C2289   1.481       .  S
C301       C1505   1.477       .  S
C302       C1533   1.483       .  S
Zn303       O307   1.987       .  S
Zn303       O308   2.023       .  S
Zn303       O312   2.028       .  S
Zn303       O319   2.039       .  S
Zn304       O307   1.962       .  S
Zn304       O309   2.025       .  S
Zn304       O311   2.013       .  S
Zn304       O315   2.040       .  S
Zn305       O307   1.961       .  S
Zn305       O310   1.995       .  S
Zn305       O313   2.032       .  S
Zn305       O316   2.047       .  S
Zn306       O307   1.927       .  S
Zn306       O314   2.010       .  S
Zn306       O317   1.984       .  S
Zn306       O318   1.967       .  S
O308        C320   1.274       .  A
O309        C321   1.277       .  A
O310        C322   1.274       .  A
O311        C320   1.275       .  A
O312        C322   1.275       .  A
O313        C321   1.275       .  A
O314        C323   1.271       .  A
O315        C324   1.274       .  A
O316        C323   1.275       .  A
O317        C324   1.272       .  A
O318        C325   1.269       .  A
O319        C325   1.273       .  A
C320       C1738   1.486       .  S
C321       C1878   1.489       .  S
C322       C1822   1.486       .  S
C323       C1486   1.483       .  S
C324       C1990   1.484       .  S
C325       C1449   1.478       .  S
Zn326       O330   1.947       .  S
Zn326       O331   1.987       .  S
Zn326       O335   2.000       .  S
Zn326       O342   1.999       .  S
Zn327       O330   1.972       .  S
Zn327       O332   2.040       .  S
Zn327       O334   2.056       .  S
Zn327       O338   2.014       .  S
Zn328       O330   1.951       .  S
Zn328       O333   2.043       .  S
Zn328       O336   2.005       .  S
Zn328       O339   2.014       .  S
Zn329       O330   1.986       .  S
Zn329       O337   2.050       .  S
Zn329       O340   2.044       .  S
Zn329       O341   2.038       .  S
O331        C343   1.269       .  A
O332        C344   1.276       .  A
O333        C345   1.274       .  A
O334        C343   1.276       .  A
O335        C345   1.269       .  A
O336        C344   1.274       .  A
O337        C346   1.277       .  A
O338        C347   1.276       .  A
O339        C346   1.275       .  A
O340        C347   1.276       .  A
O341        C348   1.277       .  A
O342        C348   1.272       .  A
C343       C1393   1.479       .  S
C344       C1785   1.490       .  S
C345       C1430   1.474       .  S
C346       C1906   1.490       .  S
C347       C1682   1.493       .  S
C348       C2074   1.484       .  S
C349       C1337   1.491       .  S
C349        N350   1.357       .  A
C349        N354   1.362       .  A
N350        C351   1.357       .  A
C351       C3222   1.483       .  S
C351        N352   1.358       .  A
N352        C353   1.362       .  A
C353       C1365   1.493       .  S
C353        N354   1.360       .  A
C355       C1318   1.501       .  S
C355        N356   1.353       .  A
C355        N360   1.361       .  A
N356        C357   1.360       .  A
C357       C2830   1.494       .  S
C357        N358   1.364       .  A
N358        C359   1.366       .  A
C359       C1281   1.503       .  S
C359        N360   1.366       .  A
Zn361       O365   1.977       .  S
Zn361       O366   2.026       .  S
Zn361       O370   2.051       .  S
Zn361       O377   2.022       .  S
Zn362       O365   1.979       .  S
Zn362       O367   2.046       .  S
Zn362       O369   2.036       .  S
Zn362       O373   2.042       .  S
Zn363       O365   1.940       .  S
Zn363       O368   1.996       .  S
Zn363       O371   1.969       .  S
Zn363       O374   1.988       .  S
Zn364       O365   1.954       .  S
Zn364       O372   2.049       .  S
Zn364       O375   2.036       .  S
Zn364       O376   2.030       .  S
O366        C378   1.275       .  A
O367        C379   1.275       .  A
O368        C380   1.269       .  A
O369        C378   1.279       .  A
O370        C380   1.276       .  A
O371        C379   1.270       .  A
O372        C381   1.277       .  A
O373        C382   1.276       .  A
O374        C381   1.267       .  A
O375        C382   1.278       .  A
O376        C383   1.278       .  A
O377        C383   1.274       .  A
C378       C1253   1.495       .  S
C379       C1225   1.472       .  S
C380       C1421   1.480       .  S
C381       C2102   1.490       .  S
C382       C1309   1.500       .  S
C383       C1374   1.485       .  S
C384       C1262   1.492       .  S
C384        N385   1.356       .  A
C384        N389   1.355       .  A
N385        C386   1.360       .  A
C386       C1197   1.494       .  S
C386        N387   1.366       .  A
N387        C388   1.366       .  A
C388       C3054   1.491       .  S
C388        N389   1.361       .  A
C390       C1169   1.479       .  S
C390        N391   1.357       .  A
C390        N395   1.360       .  A
N391        C392   1.356       .  A
C392       C2961   1.477       .  S
C392        N393   1.355       .  A
N393        C394   1.361       .  A
C394       C1141   1.489       .  S
C394        N395   1.359       .  A
Zn396       O400   1.967       .  S
Zn396       O401   2.048       .  S
Zn396       O405   2.023       .  S
Zn396       O412   2.029       .  S
Zn397       O400   1.937       .  S
Zn397       O402   2.008       .  S
Zn397       O404   2.005       .  S
Zn397       O408   2.010       .  S
Zn398       O400   1.967       .  S
Zn398       O403   2.034       .  S
Zn398       O406   2.045       .  S
Zn398       O409   2.027       .  S
Zn399       O400   1.963       .  S
Zn399       O407   2.002       .  S
Zn399       O410   2.011       .  S
Zn399       O411   1.987       .  S
O401        C413   1.275       .  A
O402        C414   1.274       .  A
O403        C415   1.277       .  A
O404        C413   1.274       .  A
O405        C415   1.276       .  A
O406        C414   1.276       .  A
O407        C416   1.271       .  A
O408        C417   1.272       .  A
O409        C416   1.276       .  A
O410        C417   1.270       .  A
O411        C418   1.270       .  A
O412        C418   1.276       .  A
C413       C1178   1.488       .  S
C414       C1477   1.495       .  S
C415       C1346   1.485       .  S
C416       C2018   1.483       .  S
C417       C1085   1.471       .  S
C418       C1122   1.479       .  S
C419       C1066   1.498       .  S
C419        N420   1.361       .  A
C419        N424   1.363       .  A
N420        C421   1.358       .  A
C421       C2886   1.498       .  S
C421        N422   1.355       .  A
N422        C423   1.361       .  A
C423       C1113   1.484       .  S
C423        N424   1.363       .  A
C425       C1001   1.490       .  S
C425        N426   1.363       .  A
C425        N430   1.361       .  A
N426        C427   1.356       .  A
C427       C1029   1.482       .  S
C427        N428   1.357       .  A
N428        C429   1.357       .  A
C429       C3194   1.475       .  S
C429        N430   1.359       .  A
Zn431       O435   1.939       .  S
Zn431       O436   1.994       .  S
Zn431       O440   2.002       .  S
Zn431       O447   1.984       .  S
Zn432       O435   1.968       .  S
Zn432       O437   2.025       .  S
Zn432       O439   2.036       .  S
Zn432       O443   2.027       .  S
Zn433       O435   1.956       .  S
Zn433       O438   2.061       .  S
Zn433       O441   2.029       .  S
Zn433       O444   2.034       .  S
Zn434       O435   1.965       .  S
Zn434       O442   2.026       .  S
Zn434       O445   2.003       .  S
Zn434       O446   2.018       .  S
O436        C448   1.270       .  A
O437        C449   1.275       .  A
O438        C450   1.277       .  A
O439        C448   1.275       .  A
O440        C450   1.271       .  A
O441        C449   1.278       .  A
O442        C451   1.274       .  A
O443        C452   1.274       .  A
O444        C451   1.278       .  A
O445        C452   1.273       .  A
O446        C453   1.272       .  A
O447        C453   1.269       .  A
C448       C1542   1.477       .  S
C449       C1206   1.493       .  S
C450        C973   1.487       .  S
C451       C1057   1.492       .  S
C452       C1038   1.483       .  S
C453       C2326   1.462       .  S
Zn454       O458   1.969       .  S
Zn454       O459   2.030       .  S
Zn454       O463   2.021       .  S
Zn454       O470   2.010       .  S
Zn455       O458   1.932       .  S
Zn455       O460   2.019       .  S
Zn455       O462   2.004       .  S
Zn455       O466   1.994       .  S
Zn456       O458   1.973       .  S
Zn456       O461   2.030       .  S
Zn456       O464   2.016       .  S
Zn456       O467   2.005       .  S
Zn457       O458   1.973       .  S
Zn457       O465   2.015       .  S
Zn457       O468   2.074       .  S
Zn457       O469   2.032       .  S
O459        C471   1.273       .  A
O460        C472   1.272       .  A
O461        C473   1.274       .  A
O462        C471   1.275       .  A
O463        C473   1.276       .  A
O464        C472   1.272       .  A
O465        C474   1.277       .  A
O466        C475   1.272       .  A
O467        C474   1.272       .  A
O468        C475   1.276       .  A
O469        C476   1.278       .  A
O470        C476   1.272       .  A
C471       C2186   1.488       .  S
C472        C945   1.470       .  S
C473       C1290   1.495       .  S
C474       C1150   1.482       .  S
C475       C1626   1.499       .  S
C476       C1010   1.490       .  S
C477        C926   1.481       .  S
C477        N478   1.361       .  A
C477        N482   1.359       .  A
N478        C479   1.361       .  A
C479       C3073   1.487       .  S
C479        N480   1.360   1_565  A
N480        C481   1.357       .  A
C481        C889   1.494       .  S
C481        N482   1.360   1_545  A
C483        C833   1.494       .  S
C483        N484   1.364       .  A
C483        N488   1.360       .  A
N484        C485   1.360       .  A
C485       C2998   1.489       .  S
C485        N486   1.357   1_565  A
N486        C487   1.356       .  A
C487        C861   1.491       .  S
C487        N488   1.362   1_545  A
C489        C786   1.486       .  S
C489        N490   1.363       .  A
C489        N494   1.365       .  A
N490        C491   1.355       .  A
C491       C2905   1.493       .  S
C491        N492   1.353   1_455  A
N492        C493   1.357       .  A
C493        C805   1.485       .  S
C493        N494   1.362   1_655  A
C495        C730   1.498       .  S
C495        N496   1.365   1_655  A
C495        N500   1.361       .  A
N496        C497   1.365   1_545  A
C497        C758   1.484       .  S
C497        N498   1.360       .  A
N498        C499   1.356   1_465  A
C499       C2774   1.487       .  S
C499        N500   1.354       .  A
C501        C702   1.494       .  S
C501        N502   1.358       .  A
C501        N506   1.361   1_655  A
N502        C503   1.361       .  A
C503       C2802   1.495       .  S
C503        N504   1.357   1_655  A
N504        C505   1.360       .  A
C505        C665   1.479       .  S
C505        N506   1.357       .  A
Zn507       O511   1.947       .  S
Zn507       O512   2.004       .  S
Zn507       O516   2.025       .  S
Zn507       O523   1.989       .  S
Zn508       O511   1.947       .  S
Zn508       O513   2.005       .  S
Zn508       O515   2.020       .  S
Zn508       O519   2.006       .  S
Zn509       O511   1.943       .  S
Zn509       O514   2.001       .  S
Zn509       O517   2.020       .  S
Zn509       O520   2.000       .  S
Zn510       O511   1.980       .  S
Zn510       O518   2.032       .  S
Zn510       O521   2.027       .  S
Zn510       O522   2.045       .  S
O512        C524   1.273       .  A
O513        C525   1.274       .  A
O514        C526   1.273       .  A
O515        C524   1.272       .  A
O516        C526   1.272       .  A
O517        C525   1.271       .  A
O518        C527   1.275       .  A
O519        C528   1.274       .  A
O520        C527   1.275       .  A
O521        C528   1.274       .  A
O522        C529   1.277       .  A
O523        C529   1.273       .  A
C524       C1953   1.483       .  S
C525       C1094   1.489       .  S
C526       C1458   1.489       .  S
C527        C917   1.490       .  S
C528        C674   1.476       .  S
C529        C749   1.484       .  S
Zn530       O534   1.938       .  S
Zn530       O535   2.000       .  S
Zn530       O539   1.984       .  S
Zn530       O546   2.010       .  S
Zn531       O534   1.961       .  S
Zn531       O536   2.009       .  S
Zn531       O538   2.029       .  S
Zn531       O542   2.017       .  S
Zn532       O534   1.975       .  S
Zn532       O537   2.015       .  S
Zn532       O540   2.014       .  S
Zn532       O543   2.000       .  S
Zn533       O534   1.963       .  S
Zn533       O541   2.027       .  S
Zn533       O544   2.039       .  S
Zn533       O545   2.054       .  S
O535        C547   1.270       .  A
O536        C548   1.275       .  A
O537        C549   1.271       .  A
O538        C547   1.274       .  A
O539        C549   1.271       .  A
O540        C548   1.272       .  A
O541        C550   1.277       .  A
O542        C551   1.273       .  A
O543        C550   1.271       .  A
O544        C551   1.279       .  A
O545        C552   1.275       .  A
O546        C552   1.273       .  A
C547       C2037   1.477       .  S
C548        C814   1.485       .  S
C549       C1234   1.467       .  S
C550        C870   1.488       .  S
C551        C721   1.491       .  S
C552       C1402   1.485       .  S
C553        C618   1.490       .  S
C553        N554   1.361       .  A
C553        N558   1.361   1_455  A
N554        C555   1.357   1_455  A
C555       C2681   1.501       .  S
C555        N556   1.355   1_545  A
N556        C557   1.363       .  A
C557        C637   1.483       .  S
C557        N558   1.362   1_565  A
Zn559       O563   1.953       .  S
Zn559       O564   2.045       .  S
Zn559       O568   2.028       .  S
Zn559       O575   2.030       .  S
Zn560       O563   1.937       .  S
Zn560       O565   1.985       .  S
Zn560       O567   1.983       .  S
Zn560       O571   2.005       .  S
Zn561       O563   1.975       .  S
Zn561       O566   2.008       .  S
Zn561       O569   2.024       .  S
Zn561       O572   1.999       .  S
Zn562       O563   1.964       .  S
Zn562       O570   2.022       .  S
Zn562       O573   2.041       .  S
Zn562       O574   2.040       .  S
O564        C576   1.276       .  A
O565        C577   1.270       .  A
O566        C578   1.271       .  A
O567        C576   1.269       .  A
O568        C578   1.277       .  A
O569        C577   1.271       .  A
O570        C579   1.277       .  A
O571        C580   1.271       .  A
O572        C579   1.272       .  A
O573        C580   1.276       .  A
O574        C581   1.276       .  A
O575        C581   1.277       .  A
C576        C954   1.476       .  S
C577       C2130   1.467       .  S
C578        C693   1.487       .  S
C579        C646   1.483       .  S
C580       C1598   1.488       .  S
C581        C842   1.493       .  S
Zn582       O586   1.970       .  S
Zn582       O587   2.042       .  S
Zn582       O591   2.021       .  S
Zn582       O598   2.031       .  S
Zn583       O586   1.934       .  S
Zn583       O588   1.982       .  S
Zn583       O590   2.013       .  S
Zn583       O594   2.016       .  S
Zn584       O586   1.974       .  S
Zn584       O589   2.014       .  S
Zn584       O592   2.040       .  S
Zn584       O595   2.023       .  S
Zn585       O586   1.955       .  S
Zn585       O593   2.011       .  S
Zn585       O596   2.052       .  S
Zn585       O597   2.025       .  S
O587        C599   1.276       .  A
O588        C600   1.271       .  A
O589        C601   1.276       .  A
O590        C599   1.273       .  A
O591        C601   1.274       .  A
O592        C600   1.274       .  A
O593        C602   1.275       .  A
O594        C603   1.273       .  A
O595        C602   1.273       .  A
O596        C603   1.274       .  A
O597        C604   1.277       .  A
O598        C604   1.276       .  A
C599        C982   1.487       .  S
C600       C2270   1.480       .  S
C601        C777   1.487       .  S
C602        C609   1.490       .  S
C603       C1514   1.480       .  S
C604        C898   1.493       .  S
C605        C606   1.400       .  A
C605        C610   1.401       .  A
C605        H615   1.086       .  S
C606        C611   1.478       .  S
C606        C607   1.406       .  A
C607        C608   1.396       .  A
C607        N612   1.429       .  S
C608        C609   1.408       .  A
C608        H613   1.085       .  S
C609        C610   1.419       .  A
C610        N614   1.429       .  S
C611        C616   1.405       .  A
C611        C620   1.399       .  A
N612        O627   1.262       .  A
N612        O628   1.262       .  A
N614        O625   1.262       .  A
N614        O626   1.262       .  A
C616        C617   1.396       .  A
C616        N621   1.428       .  S
C617        C618   1.408       .  A
C617        H622   1.085       .  S
C618        C619   1.418       .  A
C619        C620   1.402       .  A
C619        N623   1.427       .  S
C620        H624   1.086       .  S
N621        O631   1.262       .  A
N621        O632   1.262       .  A
N623        O629   1.261       .  A
N623        O630   1.262   1_545  A
C633        C634   1.401       .  A
C633        C638   1.400       .  A
C633        H643   1.085       .  S
C634        C639   1.483       .  S
C634        C635   1.411       .  A
C635        C636   1.394       .  A
C635        N640   1.429       .  S
C636        C637   1.403       .  A
C636        H641   1.085       .  S
C637        C638   1.415       .  A
C638        N642   1.427       .  S
C639        C644   1.413       .  A
C639        C648   1.400       .  A
N640        O655   1.262       .  A
N640        O656   1.261       .  A
N642        O653   1.262   1_565  A
N642        O654   1.261       .  A
C644        C645   1.396       .  A
C644        N649   1.429       .  S
C645        C646   1.404       .  A
C645        H650   1.085       .  S
C646        C647   1.417       .  A
C647        C648   1.397       .  A
C647        N651   1.429       .  S
C648        H652   1.085       .  S
N649        O659   1.262       .  A
N649        O660   1.262       .  A
N651        O657   1.262       .  A
N651        O658   1.262       .  A
C661        C662   1.401       .  A
C661        C666   1.402       .  A
C661        H671   1.086       .  S
C662        C667   1.477       .  S
C662        C663   1.408       .  A
C663        C664   1.396       .  A
C663        N668   1.429       .  S
C664        C665   1.402       .  A
C664        H669   1.086       .  S
C665        C666   1.415       .  A
C666        N670   1.429       .  S
C667        C672   1.408       .  A
C667        C676   1.402       .  A
N668        O683   1.262       .  A
N668        O684   1.261       .  A
N670        O681   1.262   1_455  A
N670        O682   1.262       .  A
C672        C673   1.396       .  A
C672        N677   1.429       .  S
C673        C674   1.402       .  A
C673        H678   1.086       .  S
C674        C675   1.412       .  A
C675        C676   1.402       .  A
C675        N679   1.428       .  S
C676        H680   1.086       .  S
N677        O687   1.262       .  A
N677        O688   1.261       .  A
N679        O685   1.262       .  A
N679        O686   1.262       .  A
C689        C690   1.400       .  A
C689        C694   1.403       .  A
C689        H699   1.086       .  S
C690        C695   1.480       .  S
C690        C691   1.407       .  A
C691        C692   1.396       .  A
C691        N696   1.428       .  S
C692        C693   1.405       .  A
C692        H697   1.085       .  S
C693        C694   1.419       .  A
C694        N698   1.429       .  S
C695        C700   1.406       .  A
C695        C704   1.399       .  A
N696        O711   1.262       .  A
N696        O712   1.262       .  A
N698        O709   1.262       .  A
N698        O710   1.262       .  A
C700        C701   1.399       .  A
C700        N705   1.428       .  S
C701        C702   1.409       .  A
C701        H706   1.085       .  S
C702        C703   1.420       .  A
C703        C704   1.400       .  A
C703        N707   1.428       .  S
C704        H708   1.086       .  S
N705        O715   1.262       .  A
N705        O716   1.262       .  A
N707        O713   1.262       .  A
N707        O714   1.262       .  A
C717        C718   1.399       .  A
C717        C722   1.401       .  A
C717        H727   1.086       .  S
C718        C723   1.479       .  S
C718        C719   1.407       .  A
C719        C720   1.400       .  A
C719        N724   1.428       .  S
C720        C721   1.407       .  A
C720        H725   1.085       .  S
C721        C722   1.419       .  A
C722        N726   1.429       .  S
C723        C728   1.405       .  A
C723        C732   1.400       .  A
N724        O739   1.262       .  A
N724        O740   1.262       .  A
N726        O737   1.262       .  A
N726        O738   1.262       .  A
C728        C729   1.396       .  A
C728        N733   1.429       .  S
C729        C730   1.410       .  A
C729        H734   1.084       .  S
C730        C731   1.419       .  A
C731        C732   1.404       .  A
C731        N735   1.426       .  S
C732        H736   1.086       .  S
N733        O743   1.262       .  A
N733        O744   1.261       .  A
N735        O741   1.262       .  A
N735        O742   1.262       .  A
C745        C746   1.404       .  A
C745        C750   1.403       .  A
C745        H755   1.085       .  S
C746        C751   1.481       .  S
C746        C747   1.409       .  A
C747        C748   1.395       .  A
C747        N752   1.429       .  S
C748        C749   1.406       .  A
C748        H753   1.085       .  S
C749        C750   1.413       .  A
C750        N754   1.428       .  S
C751        C756   1.410       .  A
C751        C760   1.400       .  A
N752        O767   1.262       .  A
N752        O768   1.262       .  A
N754        O765   1.262       .  A
N754        O766   1.262       .  A
C756        C757   1.400       .  A
C756        N761   1.430       .  S
C757        C758   1.406       .  A
C757        H762   1.086       .  S
C758        C759   1.412       .  A
C759        C760   1.401       .  A
C759        N763   1.426   1_565  S
C760        H764   1.086       .  S
N761        O771   1.262       .  A
N761        O772   1.262       .  A
N763        O769   1.261       .  A
N763        O770   1.262       .  A
C773        C774   1.399       .  A
C773        C778   1.399       .  A
C773        H783   1.086       .  S
C774        C779   1.475       .  S
C774        C775   1.406       .  A
C775        C776   1.397       .  A
C775        N780   1.428       .  S
C776        C777   1.407       .  A
C776        H781   1.086       .  S
C777        C778   1.418       .  A
C778        N782   1.429       .  S
C779        C784   1.405       .  A
C779        C788   1.398       .  A
N780        O795   1.262       .  A
N780        O796   1.262       .  A
N782        O793   1.262       .  A
N782        O794   1.262       .  A
C784        C785   1.396       .  A
C784        N789   1.428       .  S
C785        C786   1.407       .  A
C785        H790   1.085       .  S
C786        C787   1.417       .  A
C787        C788   1.401       .  A
C787        N791   1.427       .  S
C788        H792   1.086       .  S
N789        O799   1.262       .  A
N789        O800   1.262       .  A
N791        O797   1.262   1_455  A
N791        O798   1.261       .  A
C801        C802   1.401       .  A
C801        C806   1.401       .  A
C801        H811   1.085       .  S
C802        C807   1.481       .  S
C802        C803   1.408       .  A
C803        C804   1.395       .  A
C803        N808   1.429       .  S
C804        C805   1.407       .  A
C804        H809   1.085       .  S
C805        C806   1.414       .  A
C806        N810   1.426       .  S
C807        C812   1.409       .  A
C807        C816   1.401       .  A
N808        O823   1.262       .  A
N808        O824   1.262       .  A
N810        O821   1.261       .  A
N810        O822   1.262   1_655  A
C812        C813   1.396       .  A
C812        N817   1.429       .  S
C813        C814   1.405       .  A
C813        H818   1.085       .  S
C814        C815   1.416       .  A
C815        C816   1.399       .  A
C815        N819   1.429       .  S
C816        H820   1.085       .  S
N817        O827   1.262       .  A
N817        O828   1.262       .  A
N819        O825   1.262       .  A
N819        O826   1.262       .  A
C829        C830   1.400       .  A
C829        C834   1.406       .  A
C829        H839   1.086       .  S
C830        C835   1.483       .  S
C830        C831   1.407       .  A
C831        C832   1.398       .  A
C831        N836   1.427       .  S
C832        C833   1.405       .  A
C832        H837   1.085       .  S
C833        C834   1.421       .  A
C834        N838   1.429       .  S
C835        C840   1.407       .  A
C835        C844   1.400       .  A
N836        O851   1.262       .  A
N836        O852   1.262       .  A
N838        O849   1.262       .  A
N838        O850   1.262   1_565  A
C840        C841   1.402       .  A
C840        N845   1.428       .  S
C841        C842   1.408       .  A
C841        H846   1.085       .  S
C842        C843   1.418       .  A
C843        C844   1.403       .  A
C843        N847   1.428       .  S
C844        H848   1.086       .  S
N845        O855   1.262       .  A
N845        O856   1.262       .  A
N847        O853   1.262       .  A
N847        O854   1.262       .  A
C857        C858   1.398       .  A
C857        C862   1.399       .  A
C857        H867   1.087       .  S
C858        C863   1.478       .  S
C858        C859   1.407       .  A
C859        C860   1.398       .  A
C859        N864   1.428       .  S
C860        C861   1.406       .  A
C860        H865   1.086       .  S
C861        C862   1.421       .  A
C862        N866   1.429       .  S
C863        C868   1.408       .  A
C863        C872   1.399       .  A
N864        O879   1.262       .  A
N864        O880   1.262       .  A
N866        O877   1.262       .  A
N866        O878   1.262       .  A
C868        C869   1.397       .  A
C868        N873   1.428       .  S
C869        C870   1.406       .  A
C869        H874   1.085       .  S
C870        C871   1.419       .  A
C871        C872   1.400       .  A
C871        N875   1.429       .  S
C872        H876   1.086       .  S
N873        O883   1.262       .  A
N873        O884   1.261       .  A
N875        O881   1.262       .  A
N875        O882   1.262       .  A
C885        C886   1.399       .  A
C885        C890   1.401       .  A
C885        H895   1.086       .  S
C886        C891   1.479       .  S
C886        C887   1.406       .  A
C887        C888   1.400       .  A
C887        N892   1.428       .  S
C888        C889   1.409       .  A
C888        H893   1.085       .  S
C889        C890   1.421       .  A
C890        N894   1.429       .  S
C891        C896   1.407       .  A
C891        C900   1.399       .  A
N892        O907   1.262       .  A
N892        O908   1.262       .  A
N894        O905   1.262       .  A
N894        O906   1.262       .  A
C896        C897   1.400       .  A
C896        N901   1.428       .  S
C897        C898   1.408       .  A
C897        H902   1.085       .  S
C898        C899   1.419       .  A
C899        C900   1.402       .  A
C899        N903   1.428       .  S
C900        H904   1.086       .  S
N901        O911   1.262       .  A
N901        O912   1.262       .  A
N903        O909   1.262       .  A
N903        O910   1.262       .  A
C913        C914   1.402       .  A
C913        C918   1.403       .  A
C913        H923   1.086       .  S
C914        C919   1.485       .  S
C914        C915   1.410       .  A
C915        C916   1.394       .  A
C915        N920   1.429       .  S
C916        C917   1.406       .  A
C916        H921   1.085       .  S
C917        C918   1.417       .  A
C918        N922   1.429       .  S
C919        C924   1.411       .  A
C919        C928   1.401       .  A
N920        O935   1.262       .  A
N920        O936   1.262       .  A
N922        O933   1.262       .  A
N922        O934   1.262       .  A
C924        C925   1.402       .  A
C924        N929   1.429       .  S
C925        C926   1.405       .  A
C925        H930   1.086       .  S
C926        C927   1.411       .  A
C927        C928   1.398       .  A
C927        N931   1.428       .  S
C928        H932   1.086       .  S
N929        O939   1.262       .  A
N929        O940   1.262       .  A
N931        O937   1.262       .  A
N931        O938   1.261       .  A
C941        C942   1.404       .  A
C941        C946   1.399       .  A
C941        H951   1.085       .  S
C942        C947   1.484       .  S
C942        C943   1.414       .  A
C943        C944   1.400       .  A
C943        N948   1.429       .  S
C944        C945   1.399       .  A
C944        H949   1.086       .  S
C945        C946   1.408       .  A
C946        N950   1.429       .  S
C947        C952   1.414       .  A
C947        C956   1.401       .  A
N948        O963   1.262       .  A
N948        O964   1.261       .  A
N950        O961   1.262       .  A
N950        O962   1.262       .  A
C952        C953   1.403       .  A
C952        N957   1.429       .  S
C953        C954   1.402       .  A
C953        H958   1.086       .  S
C954        C955   1.412       .  A
C955        C956   1.396       .  A
C955        N959   1.430       .  S
C956        H960   1.085       .  S
N957        O967   1.262       .  A
N957        O968   1.262       .  A
N959        O965   1.262       .  A
N959        O966   1.262       .  A
C969        C970   1.399       .  A
C969        C974   1.397       .  A
C969        H979   1.086       .  S
C970        C975   1.484       .  S
C970        C971   1.411       .  A
C971        C972   1.408       .  A
C971        N976   1.428       .  S
C972        C973   1.407       .  A
C972        H977   1.085       .  S
C973        C974   1.414       .  A
C974        N978   1.429       .  S
C975        C980   1.410       .  A
C975        C984   1.401       .  A
N976        O991   1.262       .  A
N976        O992   1.262       .  A
N978        O989   1.262       .  A
N978        O990   1.262       .  A
C980        C981   1.405       .  A
C980        N985   1.427       .  S
C981        C982   1.406       .  A
C981        H986   1.085       .  S
C982        C983   1.415       .  A
C983        C984   1.399       .  A
C983        N987   1.430       .  S
C984        H988   1.086       .  S
N985        O995   1.262       .  A
N985        O996   1.262       .  A
N987        O993   1.262       .  A
N987        O994   1.262       .  A
C997        C998   1.399       .  A
C997       C1002   1.399       .  A
C997       H1007   1.084       .  S
C998       C1003   1.477       .  S
C998        C999   1.406       .  A
C999       C1000   1.399       .  A
C999       N1004   1.428       .  S
C1000      C1001   1.409       .  A
C1000      H1005   1.083       .  S
C1001      C1002   1.418       .  A
C1002      N1006   1.428       .  S
C1003      C1008   1.407       .  A
C1003      C1012   1.398       .  A
N1004      O1019   1.262       .  A
N1004      O1020   1.261       .  A
N1006      O1017   1.262       .  A
N1006      O1018   1.261       .  A
C1008      C1009   1.400       .  A
C1008      N1013   1.428       .  S
C1009      C1010   1.407       .  A
C1009      H1014   1.086       .  S
C1010      C1011   1.420       .  A
C1011      C1012   1.399       .  A
C1011      N1015   1.429       .  S
C1012      H1016   1.087       .  S
N1013      O1023   1.262       .  A
N1013      O1024   1.262       .  A
N1015      O1021   1.262       .  A
N1015      O1022   1.262       .  A
C1025      C1026   1.400       .  A
C1025      C1030   1.402       .  A
C1025      H1035   1.086       .  S
C1026      C1031   1.476       .  S
C1026      C1027   1.407       .  A
C1027      C1028   1.397       .  A
C1027      N1032   1.428       .  S
C1028      C1029   1.405       .  A
C1028      H1033   1.086       .  S
C1029      C1030   1.415       .  A
C1030      N1034   1.429       .  S
C1031      C1036   1.406       .  A
C1031      C1040   1.400       .  A
N1032      O1047   1.262       .  A
N1032      O1048   1.262       .  A
N1034      O1045   1.262       .  A
N1034      O1046   1.262       .  A
C1036      C1037   1.398       .  A
C1036      N1041   1.428       .  S
C1037      C1038   1.406       .  A
C1037      H1042   1.086       .  S
C1038      C1039   1.415       .  A
C1039      C1040   1.400       .  A
C1039      N1043   1.429       .  S
C1040      H1044   1.086       .  S
N1041      O1051   1.262       .  A
N1041      O1052   1.262       .  A
N1043      O1049   1.262       .  A
N1043      O1050   1.262       .  A
C1053      C1054   1.400       .  A
C1053      C1058   1.403       .  A
C1053      H1063   1.086       .  S
C1054      C1059   1.479       .  S
C1054      C1055   1.406       .  A
C1055      C1056   1.399       .  A
C1055      N1060   1.428       .  S
C1056      C1057   1.407       .  A
C1056      H1061   1.085       .  S
C1057      C1058   1.419       .  A
C1058      N1062   1.429       .  S
C1059      C1064   1.405       .  A
C1059      C1068   1.396       .  A
N1060      O1075   1.262       .  A
N1060      O1076   1.262       .  A
N1062      O1073   1.262       .  A
N1062      O1074   1.262       .  A
C1064      C1065   1.401       .  A
C1064      N1069   1.428       .  S
C1065      C1066   1.411       .  A
C1065      H1070   1.085       .  S
C1066      C1067   1.418       .  A
C1067      C1068   1.400       .  A
C1067      N1071   1.424       .  S
C1068      H1072   1.086       .  S
N1069      O1079   1.262       .  A
N1069      O1080   1.262       .  A
N1071      O1077   1.262       .  A
N1071      O1078   1.262       .  A
C1081      C1082   1.405       .  A
C1081      C1086   1.400       .  A
C1081      H1091   1.086       .  S
C1082      C1087   1.487       .  S
C1082      C1083   1.414       .  A
C1083      C1084   1.396       .  A
C1083      N1088   1.429       .  S
C1084      C1085   1.400       .  A
C1084      H1089   1.087       .  S
C1085      C1086   1.409       .  A
C1086      N1090   1.428       .  S
C1087      C1092   1.411       .  A
C1087      C1096   1.403       .  A
N1088      O1103   1.262       .  A
N1088      O1104   1.262       .  A
N1090      O1101   1.262       .  A
N1090      O1102   1.262       .  A
C1092      C1093   1.395       .  A
C1092      N1097   1.429       .  S
C1093      C1094   1.406       .  A
C1093      H1098   1.086       .  S
C1094      C1095   1.418       .  A
C1095      C1096   1.401       .  A
C1095      N1099   1.429       .  S
C1096      H1100   1.086       .  S
N1097      O1107   1.262       .  A
N1097      O1108   1.262       .  A
N1099      O1105   1.262       .  A
N1099      O1106   1.262       .  A
C1109      C1110   1.398       .  A
C1109      C1114   1.398       .  A
C1109      H1119   1.086       .  S
C1110      C1115   1.481       .  S
C1110      C1111   1.411       .  A
C1111      C1112   1.396       .  A
C1111      N1116   1.429       .  S
C1112      C1113   1.405       .  A
C1112      H1117   1.086       .  S
C1113      C1114   1.415       .  A
C1114      N1118   1.426       .  S
C1115      C1120   1.412       .  A
C1115      C1124   1.400       .  A
N1116      O1131   1.262       .  A
N1116      O1132   1.262       .  A
N1118      O1129   1.262       .  A
N1118      O1130   1.262       .  A
C1120      C1121   1.398       .  A
C1120      N1125   1.429       .  S
C1121      C1122   1.404       .  A
C1121      H1126   1.086       .  S
C1122      C1123   1.415       .  A
C1123      C1124   1.395       .  A
C1123      N1127   1.429       .  S
C1124      H1128   1.085       .  S
N1125      O1135   1.262       .  A
N1125      O1136   1.262       .  A
N1127      O1133   1.262       .  A
N1127      O1134   1.262       .  A
C1137      C1138   1.400       .  A
C1137      C1142   1.400       .  A
C1137      H1147   1.086       .  S
C1138      C1143   1.477       .  S
C1138      C1139   1.407       .  A
C1139      C1140   1.395       .  A
C1139      N1144   1.429       .  S
C1140      C1141   1.407       .  A
C1140      H1145   1.085       .  S
C1141      C1142   1.419       .  A
C1142      N1146   1.429       .  S
C1143      C1148   1.407       .  A
C1143      C1152   1.401       .  A
N1144      O1159   1.262       .  A
N1144      O1160   1.262       .  A
N1146      O1157   1.262       .  A
N1146      O1158   1.262       .  A
C1148      C1149   1.395       .  A
C1148      N1153   1.428       .  S
C1149      C1150   1.404       .  A
C1149      H1154   1.086       .  S
C1150      C1151   1.417       .  A
C1151      C1152   1.399       .  A
C1151      N1155   1.429       .  S
C1152      H1156   1.086       .  S
N1153      O1163   1.262       .  A
N1153      O1164   1.262       .  A
N1155      O1161   1.262       .  A
N1155      O1162   1.262       .  A
C1165      C1166   1.402       .  A
C1165      C1170   1.397       .  A
C1165      H1175   1.086       .  S
C1166      C1171   1.485       .  S
C1166      C1167   1.411       .  A
C1167      C1168   1.400       .  A
C1167      N1172   1.428       .  S
C1168      C1169   1.403       .  A
C1168      H1173   1.087       .  S
C1169      C1170   1.413       .  A
C1170      N1174   1.429       .  S
C1171      C1176   1.409       .  A
C1171      C1180   1.404       .  A
N1172      O1187   1.262       .  A
N1172      O1188   1.262       .  A
N1174      O1185   1.262       .  A
N1174      O1186   1.262       .  A
C1176      C1177   1.395       .  A
C1176      N1181   1.430       .  S
C1177      C1178   1.405       .  A
C1177      H1182   1.086       .  S
C1178      C1179   1.416       .  A
C1179      C1180   1.405       .  A
C1179      N1183   1.428       .  S
C1180      H1184   1.085       .  S
N1181      O1191   1.262       .  A
N1181      O1192   1.262       .  A
N1183      O1189   1.262       .  A
N1183      O1190   1.262       .  A
C1193      C1194   1.398       .  A
C1193      C1198   1.399       .  A
C1193      H1203   1.086       .  S
C1194      C1199   1.482       .  S
C1194      C1195   1.407       .  A
C1195      C1196   1.402       .  A
C1195      N1200   1.428       .  S
C1196      C1197   1.411       .  A
C1196      H1201   1.085       .  S
C1197      C1198   1.415       .  A
C1198      N1202   1.424       .  S
C1199      C1204   1.407       .  A
C1199      C1208   1.401       .  A
N1200      O1215   1.262       .  A
N1200      O1216   1.262       .  A
N1202      O1213   1.262       .  A
N1202      O1214   1.262       .  A
C1204      C1205   1.401       .  A
C1204      N1209   1.428       .  S
C1205      C1206   1.408       .  A
C1205      H1210   1.085       .  S
C1206      C1207   1.418       .  A
C1207      C1208   1.401       .  A
C1207      N1211   1.429       .  S
C1208      H1212   1.086       .  S
N1209      O1219   1.262       .  A
N1209      O1220   1.262       .  A
N1211      O1217   1.262       .  A
N1211      O1218   1.262       .  A
C1221      C1222   1.400       .  A
C1221      C1226   1.403       .  A
C1221      H1231   1.086       .  S
C1222      C1227   1.468       .  S
C1222      C1223   1.405       .  A
C1223      C1224   1.391       .  A
C1223      N1228   1.429       .  S
C1224      C1225   1.402       .  A
C1224      H1229   1.087       .  S
C1225      C1226   1.413       .  A
C1226      N1230   1.428       .  S
C1227      C1232   1.406       .  A
C1227      C1236   1.400       .  A
N1228      O1243   1.262       .  A
N1228      O1244   1.262       .  A
N1230      O1241   1.262       .  A
N1230      O1242   1.262       .  A
C1232      C1233   1.391       .  A
C1232      N1237   1.429       .  S
C1233      C1234   1.401       .  A
C1233      H1238   1.087       .  S
C1234      C1235   1.411       .  A
C1235      C1236   1.401       .  A
C1235      N1239   1.428       .  S
C1236      H1240   1.086       .  S
N1237      O1247   1.262       .  A
N1237      O1248   1.262       .  A
N1239      O1245   1.262       .  A
N1239      O1246   1.262       .  A
C1249      C1250   1.400       .  A
C1249      C1254   1.404       .  A
C1249      H1259   1.086       .  S
C1250      C1255   1.483       .  S
C1250      C1251   1.408       .  A
C1251      C1252   1.399       .  A
C1251      N1256   1.428       .  S
C1252      C1253   1.407       .  A
C1252      H1257   1.085       .  S
C1253      C1254   1.421       .  A
C1254      N1258   1.429       .  S
C1255      C1260   1.408       .  A
C1255      C1264   1.400       .  A
N1256      O1271   1.262       .  A
N1256      O1272   1.262       .  A
N1258      O1269   1.262       .  A
N1258      O1270   1.262       .  A
C1260      C1261   1.401       .  A
C1260      N1265   1.428       .  S
C1261      C1262   1.408       .  A
C1261      H1266   1.085       .  S
C1262      C1263   1.418       .  A
C1263      C1264   1.401       .  A
C1263      N1267   1.428       .  S
C1264      H1268   1.086       .  S
N1265      O1275   1.262       .  A
N1265      O1276   1.262       .  A
N1267      O1273   1.262       .  A
N1267      O1274   1.262       .  A
C1277      C1278   1.394       .  A
C1277      C1282   1.400       .  A
C1277      H1287   1.087       .  S
C1278      C1283   1.482       .  S
C1278      C1279   1.406       .  A
C1279      C1280   1.404       .  A
C1279      N1284   1.427       .  S
C1280      C1281   1.412       .  A
C1280      H1285   1.085       .  S
C1281      C1282   1.420       .  A
C1282      N1286   1.423       .  S
C1283      C1288   1.407       .  A
C1283      C1292   1.400       .  A
N1284      O1299   1.262       .  A
N1284      O1300   1.262       .  A
N1286      O1297   1.262       .  A
N1286      O1298   1.262       .  A
C1288      C1289   1.399       .  A
C1288      N1293   1.428       .  S
C1289      C1290   1.408       .  A
C1289      H1294   1.086       .  S
C1290      C1291   1.420       .  A
C1291      C1292   1.404       .  A
C1291      N1295   1.429       .  S
C1292      H1296   1.086       .  S
N1293      O1303   1.262       .  A
N1293      O1304   1.262       .  A
N1295      O1301   1.262       .  A
N1295      O1302   1.262       .  A
C1305      C1306   1.402       .  A
C1305      C1310   1.406       .  A
C1305      H1315   1.086       .  S
C1306      C1311   1.492       .  S
C1306      C1307   1.410       .  A
C1307      C1308   1.402       .  A
C1307      N1312   1.428       .  S
C1308      C1309   1.408       .  A
C1308      H1313   1.085       .  S
C1309      C1310   1.420       .  A
C1310      N1314   1.428       .  S
C1311      C1316   1.411       .  A
C1311      C1320   1.400       .  A
N1312      O1327   1.262       .  A
N1312      O1328   1.262       .  A
N1314      O1325   1.262       .  A
N1314      O1326   1.262       .  A
C1316      C1317   1.405       .  A
C1316      N1321   1.428       .  S
C1317      C1318   1.408       .  A
C1317      H1322   1.085       .  S
C1318      C1319   1.422       .  A
C1319      C1320   1.404       .  A
C1319      N1323   1.429       .  S
C1320      H1324   1.086       .  S
N1321      O1331   1.262       .  A
N1321      O1332   1.262       .  A
N1323      O1329   1.262       .  A
N1323      O1330   1.262       .  A
C1333      C1334   1.403       .  A
C1333      C1338   1.398       .  A
C1333      H1343   1.086       .  S
C1334      C1339   1.490       .  S
C1334      C1335   1.412       .  A
C1335      C1336   1.402       .  A
C1335      N1340   1.428       .  S
C1336      C1337   1.406       .  A
C1336      H1341   1.085       .  S
C1337      C1338   1.417       .  A
C1338      N1342   1.429       .  S
C1339      C1344   1.413       .  A
C1339      C1348   1.405       .  A
N1340      O1355   1.262       .  A
N1340      O1356   1.262       .  A
N1342      O1353   1.262       .  A
N1342      O1354   1.262       .  A
C1344      C1345   1.403       .  A
C1344      N1349   1.429       .  S
C1345      C1346   1.405       .  A
C1345      H1350   1.086       .  S
C1346      C1347   1.412       .  A
C1347      C1348   1.399       .  A
C1347      N1351   1.429       .  S
C1348      H1352   1.086       .  S
N1349      O1359   1.262       .  A
N1349      O1360   1.262       .  A
N1351      O1357   1.262       .  A
N1351      O1358   1.262       .  A
C1361      C1362   1.400       .  A
C1361      C1366   1.403       .  A
C1361      H1371   1.086       .  S
C1362      C1367   1.481       .  S
C1362      C1363   1.407       .  A
C1363      C1364   1.400       .  A
C1363      N1368   1.429       .  S
C1364      C1365   1.408       .  A
C1364      H1369   1.085       .  S
C1365      C1366   1.419       .  A
C1366      N1370   1.429       .  S
C1367      C1372   1.408       .  A
C1367      C1376   1.401       .  A
N1368      O1383   1.262       .  A
N1368      O1384   1.261       .  A
N1370      O1381   1.262       .  A
N1370      O1382   1.262       .  A
C1372      C1373   1.399       .  A
C1372      N1377   1.428       .  S
C1373      C1374   1.404       .  A
C1373      H1378   1.085       .  S
C1374      C1375   1.416       .  A
C1375      C1376   1.403       .  A
C1375      N1379   1.429       .  S
C1376      H1380   1.085       .  S
N1377      O1387   1.262       .  A
N1377      O1388   1.261       .  A
N1379      O1385   1.262       .  A
N1379      O1386   1.262       .  A
C1389      C1390   1.396       .  A
C1389      C1394   1.395       .  A
C1389      H1399   1.086       .  S
C1390      C1395   1.481       .  S
C1390      C1391   1.412       .  A
C1391      C1392   1.407       .  A
C1391      N1396   1.427       .  S
C1392      C1393   1.403       .  A
C1392      H1397   1.085       .  S
C1393      C1394   1.412       .  A
C1394      N1398   1.425       .  S
C1395      C1400   1.409       .  A
C1395      C1404   1.404       .  A
N1396      O1411   1.262       .  A
N1396      O1412   1.262       .  A
N1398      O1409   1.261       .  A
N1398      O1410   1.262       .  A
C1400      C1401   1.398       .  A
C1400      N1405   1.429       .  S
C1401      C1402   1.404       .  A
C1401      H1406   1.086       .  S
C1402      C1403   1.414       .  A
C1403      C1404   1.407       .  A
C1403      N1407   1.428       .  S
C1404      H1408   1.085       .  S
N1405      O1415   1.262       .  A
N1405      O1416   1.261       .  A
N1407      O1413   1.262       .  A
N1407      O1414   1.262       .  A
C1417      C1418   1.401       .  A
C1417      C1422   1.398       .  A
C1417      H1427   1.086       .  S
C1418      C1423   1.484       .  S
C1418      C1419   1.412       .  A
C1419      C1420   1.404       .  A
C1419      N1424   1.428       .  S
C1420      C1421   1.402       .  A
C1420      H1425   1.086       .  S
C1421      C1422   1.414       .  A
C1422      N1426   1.429       .  S
C1423      C1428   1.413       .  A
C1423      C1432   1.400       .  A
N1424      O1439   1.262       .  A
N1424      O1440   1.261       .  A
N1426      O1437   1.262       .  A
N1426      O1438   1.262       .  A
C1428      C1429   1.402       .  A
C1428      N1433   1.428       .  S
C1429      C1430   1.400       .  A
C1429      H1434   1.086       .  S
C1430      C1431   1.410       .  A
C1431      C1432   1.399       .  A
C1431      N1435   1.427       .  S
C1432      H1436   1.086       .  S
N1433      O1443   1.262       .  A
N1433      O1444   1.262       .  A
N1435      O1441   1.260       .  A
N1435      O1442   1.262       .  A
C1445      C1446   1.402       .  A
C1445      C1450   1.404       .  A
C1445      H1455   1.086       .  S
C1446      C1451   1.473       .  S
C1446      C1447   1.406       .  A
C1447      C1448   1.390       .  A
C1447      N1452   1.430       .  S
C1448      C1449   1.404       .  A
C1448      H1453   1.086       .  S
C1449      C1450   1.413       .  A
C1450      N1454   1.427       .  S
C1451      C1456   1.405       .  A
C1451      C1460   1.399       .  A
N1452      O1467   1.262       .  A
N1452      O1468   1.262       .  A
N1454      O1465   1.262       .  A
N1454      O1466   1.262       .  A
C1456      C1457   1.395       .  A
C1456      N1461   1.429       .  S
C1457      C1458   1.408       .  A
C1457      H1462   1.085       .  S
C1458      C1459   1.419       .  A
C1459      C1460   1.401       .  A
C1459      N1463   1.429       .  S
C1460      H1464   1.086       .  S
N1461      O1471   1.262       .  A
N1461      O1472   1.262       .  A
N1463      O1469   1.262       .  A
N1463      O1470   1.262       .  A
C1473      C1474   1.403       .  A
C1473      C1478   1.403       .  A
C1473      H1483   1.085       .  S
C1474      C1479   1.490       .  S
C1474      C1475   1.411       .  A
C1475      C1476   1.401       .  A
C1475      N1480   1.429       .  S
C1476      C1477   1.408       .  A
C1476      H1481   1.085       .  S
C1477      C1478   1.417       .  A
C1478      N1482   1.428       .  S
C1479      C1484   1.414       .  A
C1479      C1488   1.403       .  A
N1480      O1495   1.262       .  A
N1480      O1496   1.262       .  A
N1482      O1493   1.262       .  A
N1482      O1494   1.262       .  A
C1484      C1485   1.405       .  A
C1484      N1489   1.429       .  S
C1485      C1486   1.403       .  A
C1485      H1490   1.086       .  S
C1486      C1487   1.413       .  A
C1487      C1488   1.400       .  A
C1487      N1491   1.429       .  S
C1488      H1492   1.086       .  S
N1489      O1499   1.262       .  A
N1489      O1500   1.262       .  A
N1491      O1497   1.262       .  A
N1491      O1498   1.262       .  A
C1501      C1502   1.409       .  A
C1501      C1506   1.409       .  A
C1501      H1511   1.083       .  S
C1502      C1507   1.488       .  S
C1502      C1503   1.410       .  A
C1503      C1504   1.394       .  A
C1503      N1508   1.429       .  S
C1504      C1505   1.402       .  A
C1504      H1509   1.084       .  S
C1505      C1506   1.409       .  A
C1506      N1510   1.429       .  S
C1507      C1512   1.410       .  A
C1507      C1516   1.405       .  A
N1508      O1523   1.262       .  A
N1508      O1524   1.262       .  A
N1510      O1521   1.262       .  A
N1510      O1522   1.262       .  A
C1512      C1513   1.401       .  A
C1512      N1517   1.428       .  S
C1513      C1514   1.402       .  A
C1513      H1518   1.085       .  S
C1514      C1515   1.412       .  A
C1515      C1516   1.405       .  A
C1515      N1519   1.428       .  S
C1516      H1520   1.085       .  S
N1517      O1527   1.262       .  A
N1517      O1528   1.262       .  A
N1519      O1525   1.262       .  A
N1519      O1526   1.262       .  A
C1529      C1530   1.399       .  A
C1529      C1534   1.399       .  A
C1529      H1539   1.086       .  S
C1530      C1535   1.477       .  S
C1530      C1531   1.408       .  A
C1531      C1532   1.403       .  A
C1531      N1536   1.428       .  S
C1532      C1533   1.404       .  A
C1532      H1537   1.085       .  S
C1533      C1534   1.415       .  A
C1534      N1538   1.429       .  S
C1535      C1540   1.409       .  A
C1535      C1544   1.400       .  A
N1536      O1551   1.262       .  A
N1536      O1552   1.262       .  A
N1538      O1549   1.262       .  A
N1538      O1550   1.262       .  A
C1540      C1541   1.402       .  A
C1540      N1545   1.428       .  S
C1541      C1542   1.403       .  A
C1541      H1546   1.085       .  S
C1542      C1543   1.413       .  A
C1543      C1544   1.397       .  A
C1543      N1547   1.430       .  S
C1544      H1548   1.086       .  S
N1545      O1555   1.262       .  A
N1545      O1556   1.262       .  A
N1547      O1553   1.262       .  A
N1547      O1554   1.262       .  A
C1557      C1558   1.401       .  A
C1557      C1562   1.404       .  A
C1557      H1567   1.085       .  S
C1558      C1563   1.477       .  S
C1558      C1559   1.405       .  A
C1559      C1560   1.398       .  A
C1559      N1564   1.428       .  S
C1560      C1561   1.406       .  A
C1560      H1565   1.085       .  S
C1561      C1562   1.416       .  A
C1562      N1566   1.428       .  S
C1563      C1568   1.406       .  A
C1563      C1572   1.401       .  A
N1564      O1579   1.262       .  A
N1564      O1580   1.262       .  A
N1566      O1577   1.262   1_545  A
N1566      O1578   1.262       .  A
C1568      C1569   1.396       .  A
C1568      N1573   1.428       .  S
C1569      C1570   1.405       .  A
C1569      H1574   1.085       .  S
C1570      C1571   1.416       .  A
C1571      C1572   1.404       .  A
C1571      N1575   1.429       .  S
C1572      H1576   1.085       .  S
N1573      O1583   1.262       .  A
N1573      O1584   1.262       .  A
N1575      O1581   1.262       .  A
N1575      O1582   1.262       .  A
C1585      C1586   1.400       .  A
C1585      C1590   1.402       .  A
C1585      H1595   1.086       .  S
C1586      C1591   1.481       .  S
C1586      C1587   1.407       .  A
C1587      C1588   1.399       .  A
C1587      N1592   1.428       .  S
C1588      C1589   1.406       .  A
C1588      H1593   1.085       .  S
C1589      C1590   1.420       .  A
C1590      N1594   1.429       .  S
C1591      C1596   1.409       .  A
C1591      C1600   1.399       .  A
N1592      O1607   1.262       .  A
N1592      O1608   1.262       .  A
N1594      O1605   1.262       .  A
N1594      O1606   1.262       .  A
C1596      C1597   1.403       .  A
C1596      N1601   1.428       .  S
C1597      C1598   1.407       .  A
C1597      H1602   1.085       .  S
C1598      C1599   1.417       .  A
C1599      C1600   1.398       .  A
C1599      N1603   1.429       .  S
C1600      H1604   1.086       .  S
N1601      O1611   1.262       .  A
N1601      O1612   1.262       .  A
N1603      O1609   1.262       .  A
N1603      O1610   1.262       .  A
C1613      C1614   1.401       .  A
C1613      C1618   1.404       .  A
C1613      H1623   1.086       .  S
C1614      C1619   1.485       .  S
C1614      C1615   1.407       .  A
C1615      C1616   1.402       .  A
C1615      N1620   1.428       .  S
C1616      C1617   1.409       .  A
C1616      H1621   1.086       .  S
C1617      C1618   1.419       .  A
C1618      N1622   1.429       .  S
C1619      C1624   1.405       .  A
C1619      C1628   1.404       .  A
N1620      O1635   1.262       .  A
N1620      O1636   1.261       .  A
N1622      O1633   1.262       .  A
N1622      O1634   1.262       .  A
C1624      C1625   1.395       .  A
C1624      N1629   1.429       .  S
C1625      C1626   1.408       .  A
C1625      H1630   1.086       .  S
C1626      C1627   1.419       .  A
C1627      C1628   1.412       .  A
C1627      N1631   1.428       .  S
C1628      H1632   1.086       .  S
N1629      O1639   1.262       .  A
N1629      O1640   1.262       .  A
N1631      O1637   1.262       .  A
N1631      O1638   1.262       .  A
C1641      C1642   1.404       .  A
C1641      C1646   1.405       .  A
C1641      H1651   1.085       .  S
C1642      C1647   1.490       .  S
C1642      C1643   1.413       .  A
C1643      C1644   1.398       .  A
C1643      N1648   1.430       .  S
C1644      C1645   1.404       .  A
C1644      H1649   1.086       .  S
C1645      C1646   1.415       .  A
C1646      N1650   1.428       .  S
C1647      C1652   1.413       .  A
C1647      C1656   1.403       .  A
N1648      O1663   1.262       .  A
N1648      O1664   1.262       .  A
N1650      O1661   1.262       .  A
N1650      O1662   1.262       .  A
C1652      C1653   1.399       .  A
C1652      N1657   1.428       .  S
C1653      C1654   1.403       .  A
C1653      H1658   1.086       .  S
C1654      C1655   1.416       .  A
C1655      C1656   1.400       .  A
C1655      N1659   1.430       .  S
C1656      H1660   1.086       .  S
N1657      O1667   1.262       .  A
N1657      O1668   1.261       .  A
N1659      O1665   1.262       .  A
N1659      O1666   1.261       .  A
C1669      C1670   1.400       .  A
C1669      C1674   1.401       .  A
C1669      H1679   1.087       .  S
C1670      C1675   1.479       .  S
C1670      C1671   1.405       .  A
C1671      C1672   1.397       .  A
C1671      N1676   1.428       .  S
C1672      C1673   1.408       .  A
C1672      H1677   1.085       .  S
C1673      C1674   1.418       .  A
C1674      N1678   1.428       .  S
C1675      C1680   1.405       .  A
C1675      C1684   1.400       .  A
N1676      O1691   1.262       .  A
N1676      O1692   1.262       .  A
N1678      O1689   1.261       .  A
N1678      O1690   1.262       .  A
C1680      C1681   1.396       .  A
C1680      N1685   1.429       .  S
C1681      C1682   1.408       .  A
C1681      H1686   1.085       .  S
C1682      C1683   1.419       .  A
C1683      C1684   1.404       .  A
C1683      N1687   1.428       .  S
C1684      H1688   1.086       .  S
N1685      O1695   1.262       .  A
N1685      O1696   1.262       .  A
N1687      O1693   1.262       .  A
N1687      O1694   1.262       .  A
C1697      C1698   1.403       .  A
C1697      C1702   1.401       .  A
C1697      H1707   1.085       .  S
C1698      C1703   1.488       .  S
C1698      C1699   1.415       .  A
C1699      C1700   1.398       .  A
C1699      N1704   1.430       .  S
C1700      C1701   1.401       .  A
C1700      H1705   1.086       .  S
C1701      C1702   1.412       .  A
C1702      N1706   1.428   1_565  S
C1703      C1708   1.413       .  A
C1703      C1712   1.401       .  A
N1704      O1719   1.262       .  A
N1704      O1720   1.262       .  A
N1706      O1717   1.262       .  A
N1706      O1718   1.262       .  A
C1708      C1709   1.401       .  A
C1708      N1713   1.429       .  S
C1709      C1710   1.405       .  A
C1709      H1714   1.085       .  S
C1710      C1711   1.418       .  A
C1711      C1712   1.397       .  A
C1711      N1715   1.430       .  S
C1712      H1716   1.085       .  S
N1713      O1723   1.262       .  A
N1713      O1724   1.261       .  A
N1715      O1721   1.262       .  A
N1715      O1722   1.262       .  A
C1725      C1726   1.398       .  A
C1725      C1730   1.401       .  A
C1725      H1735   1.086       .  S
C1726      C1731   1.477       .  S
C1726      C1727   1.406       .  A
C1727      C1728   1.400       .  A
C1727      N1732   1.428       .  S
C1728      C1729   1.406       .  A
C1728      H1733   1.085       .  S
C1729      C1730   1.418       .  A
C1730      N1734   1.429       .  S
C1731      C1736   1.406       .  A
C1731      C1740   1.399       .  A
N1732      O1747   1.262       .  A
N1732      O1748   1.262       .  A
N1734      O1745   1.262       .  A
N1734      O1746   1.262   1_565  A
C1736      C1737   1.398       .  A
C1736      N1741   1.428       .  S
C1737      C1738   1.406       .  A
C1737      H1742   1.085       .  S
C1738      C1739   1.417       .  A
C1739      C1740   1.401       .  A
C1739      N1743   1.428       .  S
C1740      H1744   1.086       .  S
N1741      O1751   1.262       .  A
N1741      O1752   1.262       .  A
N1743      O1749   1.262       .  A
N1743      O1750   1.261       .  A
C1753      C1754   1.403       .  A
C1753      C1758   1.400       .  A
C1753      H1763   1.086       .  S
C1754      C1759   1.483       .  S
C1754      C1755   1.410       .  A
C1755      C1756   1.396       .  A
C1755      N1760   1.429       .  S
C1756      C1757   1.404       .  A
C1756      H1761   1.086       .  S
C1757      C1758   1.414       .  A
C1758      N1762   1.429       .  S
C1759      C1764   1.409       .  A
C1759      C1768   1.402       .  A
N1760      O1775   1.262       .  A
N1760      O1776   1.262       .  A
N1762      O1773   1.262       .  A
N1762      O1774   1.261       .  A
C1764      C1765   1.397       .  A
C1764      N1769   1.430       .  S
C1765      C1766   1.408       .  A
C1765      H1770   1.085       .  S
C1766      C1767   1.416       .  A
C1767      C1768   1.400       .  A
C1767      N1771   1.428       .  S
C1768      H1772   1.085       .  S
N1769      O1779   1.262       .  A
N1769      O1780   1.262       .  A
N1771      O1777   1.262       .  A
N1771      O1778   1.262       .  A
C1781      C1782   1.401       .  A
C1781      C1786   1.404       .  A
C1781      H1791   1.086       .  S
C1782      C1787   1.479       .  S
C1782      C1783   1.406       .  A
C1783      C1784   1.396       .  A
C1783      N1788   1.428       .  S
C1784      C1785   1.408       .  A
C1784      H1789   1.085       .  S
C1785      C1786   1.417       .  A
C1786      N1790   1.428       .  S
C1787      C1792   1.405       .  A
C1787      C1796   1.400       .  A
N1788      O1803   1.262       .  A
N1788      O1804   1.262       .  A
N1790      O1801   1.262       .  A
N1790      O1802   1.262       .  A
C1792      C1793   1.398       .  A
C1792      N1797   1.428       .  S
C1793      C1794   1.410       .  A
C1793      H1798   1.085       .  S
C1794      C1795   1.419       .  A
C1795      C1796   1.402       .  A
C1795      N1799   1.428       .  S
C1796      H1800   1.086       .  S
N1797      O1807   1.262       .  A
N1797      O1808   1.262       .  A
N1799      O1805   1.262       .  A
N1799      O1806   1.262       .  A
C1809      C1810   1.399       .  A
C1809      C1814   1.397       .  A
C1809      H1819   1.086       .  S
C1810      C1815   1.475       .  S
C1810      C1811   1.407       .  A
C1811      C1812   1.398       .  A
C1811      N1816   1.429       .  S
C1812      C1813   1.408       .  A
C1812      H1817   1.085       .  S
C1813      C1814   1.415       .  A
C1814      N1818   1.428       .  S
C1815      C1820   1.406       .  A
C1815      C1824   1.401       .  A
N1816      O1831   1.262       .  A
N1816      O1832   1.262       .  A
N1818      O1829   1.261       .  A
N1818      O1830   1.262       .  A
C1820      C1821   1.396       .  A
C1820      N1825   1.429       .  S
C1821      C1822   1.408       .  A
C1821      H1826   1.085       .  S
C1822      C1823   1.416       .  A
C1823      C1824   1.399       .  A
C1823      N1827   1.429       .  S
C1824      H1828   1.085       .  S
N1825      O1835   1.262       .  A
N1825      O1836   1.262       .  A
N1827      O1833   1.262       .  A
N1827      O1834   1.262       .  A
C1837      C1838   1.403       .  A
C1837      C1842   1.404       .  A
C1837      H1847   1.086       .  S
C1838      C1843   1.489       .  S
C1838      C1839   1.412       .  A
C1839      C1840   1.397       .  A
C1839      N1844   1.429       .  S
C1840      C1841   1.404       .  A
C1840      H1845   1.086       .  S
C1841      C1842   1.416       .  A
C1842      N1846   1.429   1_556  S
C1843      C1848   1.413       .  A
C1843      C1852   1.401       .  A
N1844      O1859   1.262       .  A
N1844      O1860   1.262       .  A
N1846      O1857   1.262       .  A
N1846      O1858   1.262       .  A
C1848      C1849   1.405       .  A
C1848      N1853   1.428       .  S
C1849      C1850   1.405       .  A
C1849      H1854   1.086       .  S
C1850      C1851   1.416       .  A
C1851      C1852   1.398       .  A
C1851      N1855   1.429       .  S
C1852      H1856   1.086       .  S
N1853      O1863   1.262       .  A
N1853      O1864   1.262       .  A
N1855      O1861   1.262       .  A
N1855      O1862   1.262       .  A
C1865      C1866   1.400       .  A
C1865      C1870   1.401       .  A
C1865      H1875   1.086       .  S
C1866      C1871   1.479       .  S
C1866      C1867   1.407       .  A
C1867      C1868   1.400       .  A
C1867      N1872   1.428       .  S
C1868      C1869   1.406       .  A
C1868      H1873   1.086       .  S
C1869      C1870   1.416       .  A
C1870      N1874   1.429       .  S
C1871      C1876   1.406       .  A
C1871      C1880   1.401       .  A
N1872      O1887   1.262       .  A
N1872      O1888   1.262       .  A
N1874      O1885   1.262       .  A
N1874      O1886   1.262       .  A
C1876      C1877   1.399       .  A
C1876      N1881   1.428       .  S
C1877      C1878   1.407       .  A
C1877      H1882   1.085       .  S
C1878      C1879   1.417       .  A
C1879      C1880   1.404       .  A
C1879      N1883   1.429       .  S
C1880      H1884   1.085       .  S
N1881      O1891   1.262       .  A
N1881      O1892   1.262       .  A
N1883      O1889   1.262       .  A
N1883      O1890   1.262       .  A
C1893      C1894   1.402       .  A
C1893      C1898   1.407       .  A
C1893      H1903   1.086       .  S
C1894      C1899   1.490       .  S
C1894      C1895   1.409       .  A
C1895      C1896   1.398       .  A
C1895      N1900   1.429       .  S
C1896      C1897   1.407       .  A
C1896      H1901   1.085       .  S
C1897      C1898   1.421       .  A
C1898      N1902   1.428       .  S
C1899      C1904   1.410       .  A
C1899      C1908   1.404       .  A
N1900      O1915   1.262       .  A
N1900      O1916   1.262       .  A
N1902      O1913   1.262       .  A
N1902      O1914   1.262       .  A
C1904      C1905   1.401       .  A
C1904      N1909   1.429       .  S
C1905      C1906   1.407       .  A
C1905      H1910   1.086       .  S
C1906      C1907   1.414       .  A
C1907      C1908   1.403       .  A
C1907      N1911   1.428       .  S
C1908      H1912   1.086       .  S
N1909      O1919   1.262       .  A
N1909      O1920   1.262       .  A
N1911      O1917   1.262       .  A
N1911      O1918   1.262       .  A
C1921      C1922   1.400       .  A
C1921      C1926   1.401       .  A
C1921      H1931   1.086       .  S
C1922      C1927   1.476       .  S
C1922      C1923   1.406       .  A
C1923      C1924   1.396       .  A
C1923      N1928   1.429       .  S
C1924      C1925   1.408       .  A
C1924      H1929   1.085       .  S
C1925      C1926   1.418       .  A
C1926      N1930   1.429       .  S
C1927      C1932   1.405       .  A
C1927      C1936   1.396       .  A
N1928      O1943   1.262       .  A
N1928      O1944   1.262       .  A
N1930      O1941   1.262       .  A
N1930      O1942   1.262       .  A
C1932      C1933   1.398       .  A
C1932      N1937   1.428       .  S
C1933      C1934   1.409       .  A
C1933      H1938   1.085       .  S
C1934      C1935   1.420       .  A
C1935      C1936   1.399       .  A
C1935      N1939   1.426       .  S
C1936      H1940   1.087       .  S
N1937      O1947   1.262       .  A
N1937      O1948   1.262       .  A
N1939      O1945   1.262       .  A
N1939      O1946   1.262       .  A
C1949      C1950   1.401       .  A
C1949      C1954   1.399       .  A
C1949      H1959   1.085       .  S
C1950      C1955   1.479       .  S
C1950      C1951   1.408       .  A
C1951      C1952   1.398       .  A
C1951      N1956   1.429       .  S
C1952      C1953   1.406       .  A
C1952      H1957   1.085       .  S
C1953      C1954   1.416       .  A
C1954      N1958   1.429       .  S
C1955      C1960   1.410       .  A
C1955      C1964   1.403       .  A
N1956      O1971   1.262       .  A
N1956      O1972   1.262       .  A
N1958      O1969   1.262       .  A
N1958      O1970   1.262       .  A
C1960      C1961   1.396       .  A
C1960      N1965   1.429       .  S
C1961      C1962   1.403       .  A
C1961      H1966   1.085       .  S
C1962      C1963   1.414       .  A
C1963      C1964   1.403       .  A
C1963      N1967   1.429       .  S
C1964      H1968   1.085       .  S
N1965      O1975   1.262       .  A
N1965      O1976   1.262       .  A
N1967      O1973   1.262       .  A
N1967      O1974   1.262       .  A
C1977      C1978   1.398       .  A
C1977      C1982   1.397       .  A
C1977      H1987   1.086       .  S
C1978      C1983   1.473       .  S
C1978      C1979   1.406       .  A
C1979      C1980   1.397       .  A
C1979      N1984   1.428       .  S
C1980      C1981   1.407       .  A
C1980      H1985   1.085       .  S
C1981      C1982   1.418       .  A
C1982      N1986   1.429       .  S
C1983      C1988   1.406       .  A
C1983      C1992   1.400       .  A
N1984      O1999   1.262       .  A
N1984      O2000   1.262       .  A
N1986      O1997   1.262       .  A
N1986      O1998   1.262       .  A
C1988      C1989   1.391       .  A
C1988      N1993   1.430       .  S
C1989      C1990   1.405       .  A
C1989      H1994   1.085       .  S
C1990      C1991   1.417       .  A
C1991      C1992   1.405       .  A
C1991      N1995   1.428       .  S
C1992      H1996   1.086       .  S
N1993      O2003   1.262       .  A
N1993      O2004   1.262       .  A
N1995      O2001   1.262       .  A
N1995      O2002   1.262       .  A
C2005      C2006   1.402       .  A
C2005      C2010   1.400       .  A
C2005      H2015   1.086       .  S
C2006      C2011   1.489       .  S
C2006      C2007   1.412       .  A
C2007      C2008   1.402       .  A
C2007      N2012   1.429       .  S
C2008      C2009   1.406       .  A
C2008      H2013   1.086       .  S
C2009      C2010   1.417       .  A
C2010      N2014   1.429       .  S
C2011      C2016   1.413       .  A
C2011      C2020   1.403       .  A
N2012      O2027   1.262       .  A
N2012      O2028   1.262       .  A
N2014      O2025   1.262       .  A
N2014      O2026   1.262       .  A
C2016      C2017   1.400       .  A
C2016      N2021   1.429       .  S
C2017      C2018   1.403       .  A
C2017      H2022   1.086       .  S
C2018      C2019   1.415       .  A
C2019      C2020   1.399       .  A
C2019      N2023   1.430       .  S
C2020      H2024   1.085       .  S
N2021      O2031   1.262       .  A
N2021      O2032   1.262       .  A
N2023      O2029   1.262       .  A
N2023      O2030   1.262       .  A
C2033      C2034   1.401       .  A
C2033      C2038   1.396       .  A
C2033      H2043   1.086       .  S
C2034      C2039   1.479       .  S
C2034      C2035   1.410       .  A
C2035      C2036   1.403       .  A
C2035      N2040   1.428       .  S
C2036      C2037   1.404       .  A
C2036      H2041   1.086       .  S
C2037      C2038   1.412       .  A
C2038      N2042   1.429       .  S
C2039      C2044   1.409       .  A
C2039      C2048   1.402       .  A
N2040      O2055   1.262       .  A
N2040      O2056   1.262       .  A
N2042      O2053   1.262       .  A
N2042      O2054   1.262       .  A
C2044      C2045   1.398       .  A
C2044      N2049   1.429       .  S
C2045      C2046   1.405       .  A
C2045      H2050   1.085       .  S
C2046      C2047   1.416       .  A
C2047      C2048   1.401       .  A
C2047      N2051   1.429       .  S
C2048      H2052   1.086       .  S
N2049      O2059   1.262       .  A
N2049      O2060   1.262       .  A
N2051      O2057   1.262       .  A
N2051      O2058   1.262       .  A
C2061      C2062   1.403       .  A
C2061      C2066   1.404       .  A
C2061      H2071   1.085       .  S
C2062      C2067   1.485       .  S
C2062      C2063   1.411       .  A
C2063      C2064   1.394       .  A
C2063      N2068   1.430       .  S
C2064      C2065   1.406       .  A
C2064      H2069   1.085       .  S
C2065      C2066   1.417       .  A
C2066      N2070   1.429       .  S
C2067      C2072   1.412       .  A
C2067      C2076   1.400       .  A
N2068      O2083   1.262       .  A
N2068      O2084   1.261       .  A
N2070      O2081   1.262       .  A
N2070      O2082   1.262       .  A
C2072      C2073   1.404       .  A
C2072      N2077   1.429       .  S
C2073      C2074   1.406       .  A
C2073      H2078   1.086       .  S
C2074      C2075   1.414       .  A
C2075      C2076   1.394       .  A
C2075      N2079   1.429       .  S
C2076      H2080   1.085       .  S
N2077      O2087   1.262       .  A
N2077      O2088   1.262       .  A
N2079      O2085   1.262       .  A
N2079      O2086   1.262       .  A
C2089      C2090   1.401       .  A
C2089      C2094   1.403       .  A
C2089      H2099   1.085       .  S
C2090      C2095   1.483       .  S
C2090      C2091   1.409       .  A
C2091      C2092   1.397       .  A
C2091      N2096   1.429       .  S
C2092      C2093   1.406       .  A
C2092      H2097   1.085       .  S
C2093      C2094   1.420       .  A
C2094      N2098   1.429       .  S
C2095      C2100   1.410       .  A
C2095      C2104   1.399       .  A
N2096      O2111   1.262       .  A
N2096      O2112   1.262       .  A
N2098      O2109   1.262       .  A
N2098      O2110   1.262       .  A
C2100      C2101   1.403       .  A
C2100      N2105   1.428       .  S
C2101      C2102   1.407       .  A
C2101      H2106   1.085       .  S
C2102      C2103   1.419       .  A
C2103      C2104   1.397       .  A
C2103      N2107   1.430       .  S
C2104      H2108   1.086       .  S
N2105      O2115   1.262       .  A
N2105      O2116   1.262       .  A
N2107      O2113   1.262       .  A
N2107      O2114   1.262       .  A
C2117      C2118   1.401       .  A
C2117      C2122   1.404       .  A
C2117      H2127   1.085       .  S
C2118      C2123   1.468       .  S
C2118      C2119   1.404       .  A
C2119      C2120   1.388       .  A
C2119      N2124   1.430       .  S
C2120      C2121   1.405       .  A
C2120      H2125   1.086       .  S
C2121      C2122   1.414       .  A
C2122      N2126   1.428       .  S
C2123      C2128   1.407       .  A
C2123      C2132   1.400       .  A
N2124      O2139   1.262       .  A
N2124      O2140   1.262       .  A
N2126      O2137   1.262       .  A
N2126      O2138   1.262       .  A
C2128      C2129   1.393       .  A
C2128      N2133   1.429       .  S
C2129      C2130   1.400       .  A
C2129      H2134   1.086       .  S
C2130      C2131   1.411       .  A
C2131      C2132   1.401       .  A
C2131      N2135   1.428       .  S
C2132      H2136   1.085       .  S
N2133      O2143   1.262       .  A
N2133      O2144   1.262       .  A
N2135      O2141   1.262       .  A
N2135      O2142   1.262       .  A
C2145      C2146   1.400       .  A
C2145      C2150   1.404       .  A
C2145      H2155   1.086       .  S
C2146      C2151   1.477       .  S
C2146      C2147   1.407       .  A
C2147      C2148   1.395       .  A
C2147      N2152   1.429       .  S
C2148      C2149   1.406       .  A
C2148      H2153   1.086       .  S
C2149      C2150   1.416       .  A
C2150      N2154   1.428       .  S
C2151      C2156   1.407       .  A
C2151      C2160   1.400       .  A
N2152      O2167   1.262       .  A
N2152      O2168   1.262       .  A
N2154      O2165   1.262       .  A
N2154      O2166   1.262       .  A
C2156      C2157   1.396       .  A
C2156      N2161   1.428       .  S
C2157      C2158   1.406       .  A
C2157      H2162   1.085       .  S
C2158      C2159   1.417       .  A
C2159      C2160   1.400       .  A
C2159      N2163   1.429       .  S
C2160      H2164   1.086       .  S
N2161      O2171   1.262       .  A
N2161      O2172   1.262       .  A
N2163      O2169   1.262       .  A
N2163      O2170   1.262       .  A
C2173      C2174   1.399       .  A
C2173      C2178   1.395       .  A
C2173      H2183   1.086       .  S
C2174      C2179   1.476       .  S
C2174      C2175   1.409       .  A
C2175      C2176   1.404       .  A
C2175      N2180   1.428       .  S
C2176      C2177   1.404       .  A
C2176      H2181   1.086       .  S
C2177      C2178   1.410       .  A
C2178      N2182   1.429       .  S
C2179      C2184   1.405       .  A
C2179      C2188   1.401       .  A
N2180      O2195   1.262       .  A
N2180      O2196   1.262       .  A
N2182      O2193   1.262       .  A
N2182      O2194   1.262       .  A
C2184      C2185   1.391       .  A
C2184      N2189   1.429       .  S
C2185      C2186   1.405       .  A
C2185      H2190   1.085       .  S
C2186      C2187   1.419       .  A
C2187      C2188   1.407       .  A
C2187      N2191   1.429       .  S
C2188      H2192   1.085       .  S
N2189      O2199   1.262       .  A
N2189      O2200   1.262       .  A
N2191      O2197   1.262       .  A
N2191      O2198   1.262       .  A
C2201      C2202   1.404       .  A
C2201      C2206   1.404       .  A
C2201      H2211   1.085       .  S
C2202      C2207   1.487       .  S
C2202      C2203   1.411       .  A
C2203      C2204   1.402       .  A
C2203      N2208   1.428       .  S
C2204      C2205   1.402       .  A
C2204      H2209   1.085       .  S
C2205      C2206   1.411       .  A
C2206      N2210   1.429       .  S
C2207      C2212   1.410       .  A
C2207      C2216   1.401       .  A
N2208      O2223   1.262       .  A
N2208      O2224   1.261       .  A
N2210      O2221   1.262   1_554  A
N2210      O2222   1.262       .  A
C2212      C2213   1.402       .  A
C2212      N2217   1.428       .  S
C2213      C2214   1.407       .  A
C2213      H2218   1.085       .  S
C2214      C2215   1.419       .  A
C2215      C2216   1.402       .  A
C2215      N2219   1.429       .  S
C2216      H2220   1.085       .  S
N2217      O2227   1.262       .  A
N2217      O2228   1.262       .  A
N2219      O2225   1.262       .  A
N2219      O2226   1.262       .  A
C2229      C2230   1.400       .  A
C2229      C2234   1.401       .  A
C2229      H2239   1.086       .  S
C2230      C2235   1.479       .  S
C2230      C2231   1.407       .  A
C2231      C2232   1.397       .  A
C2231      N2236   1.429       .  S
C2232      C2233   1.407       .  A
C2232      H2237   1.085       .  S
C2233      C2234   1.418       .  A
C2234      N2238   1.429       .  S
C2235      C2240   1.406       .  A
C2235      C2244   1.398       .  A
N2236      O2251   1.262       .  A
N2236      O2252   1.262       .  A
N2238      O2249   1.262       .  A
N2238      O2250   1.262       .  A
C2240      C2241   1.399       .  A
C2240      N2245   1.428       .  S
C2241      C2242   1.410       .  A
C2241      H2246   1.085       .  S
C2242      C2243   1.418       .  A
C2243      C2244   1.400       .  A
C2243      N2247   1.424       .  S
C2244      H2248   1.086       .  S
N2245      O2255   1.262       .  A
N2245      O2256   1.262       .  A
N2247      O2253   1.262       .  A
N2247      O2254   1.262       .  A
C2257      C2258   1.402       .  A
C2257      C2262   1.405       .  A
C2257      H2267   1.085       .  S
C2258      C2263   1.472       .  S
C2258      C2259   1.405       .  A
C2259      C2260   1.391       .  A
C2259      N2264   1.430       .  S
C2260      C2261   1.403       .  A
C2260      H2265   1.086       .  S
C2261      C2262   1.414       .  A
C2262      N2266   1.428       .  S
C2263      C2268   1.406       .  A
C2263      C2272   1.401       .  A
N2264      O2279   1.262       .  A
N2264      O2280   1.262       .  A
N2266      O2277   1.262       .  A
N2266      O2278   1.262       .  A
C2268      C2269   1.393       .  A
C2268      N2273   1.430       .  S
C2269      C2270   1.406       .  A
C2269      H2274   1.085       .  S
C2270      C2271   1.414       .  A
C2271      C2272   1.403       .  A
C2271      N2275   1.428       .  S
C2272      H2276   1.085       .  S
N2273      O2283   1.262       .  A
N2273      O2284   1.262       .  A
N2275      O2281   1.262       .  A
N2275      O2282   1.262       .  A
C2285      C2286   1.398       .  A
C2285      C2290   1.395       .  A
C2285      H2295   1.086       .  S
C2286      C2291   1.477       .  S
C2286      C2287   1.408       .  A
C2287      C2288   1.403       .  A
C2287      N2292   1.427       .  S
C2288      C2289   1.405       .  A
C2288      H2293   1.086       .  S
C2289      C2290   1.416       .  A
C2290      N2294   1.430       .  S
C2291      C2296   1.408       .  A
C2291      C2300   1.403       .  A
N2292      O2307   1.262       .  A
N2292      O2308   1.262       .  A
N2294      O2305   1.262       .  A
N2294      O2306   1.262       .  A
C2296      C2297   1.394       .  A
C2296      N2301   1.429       .  S
C2297      C2298   1.400       .  A
C2297      H2302   1.086       .  S
C2298      C2299   1.412       .  A
C2299      C2300   1.406       .  A
C2299      N2303   1.429       .  S
C2300      H2304   1.085       .  S
N2301      O2311   1.262       .  A
N2301      O2312   1.262       .  A
N2303      O2309   1.262       .  A
N2303      O2310   1.262       .  A
C2313      C2314   1.404       .  A
C2313      C2318   1.406       .  A
C2313      H2323   1.085       .  S
C2314      C2319   1.480       .  S
C2314      C2315   1.407       .  A
C2315      C2316   1.394       .  A
C2315      N2320   1.429       .  S
C2316      C2317   1.404       .  A
C2316      H2321   1.086       .  S
C2317      C2318   1.414       .  A
C2318      N2322   1.428       .  S
C2319      C2324   1.411       .  A
C2319      C2328   1.406       .  A
N2320      O2335   1.262       .  A
N2320      O2336   1.262       .  A
N2322      O2333   1.262       .  A
N2322      O2334   1.262       .  A
C2324      C2325   1.396       .  A
C2324      N2329   1.428       .  S
C2325      C2326   1.397       .  A
C2325      H2330   1.085       .  S
C2326      C2327   1.406       .  A
C2327      C2328   1.402       .  A
C2327      N2331   1.430       .  S
C2328      H2332   1.083       .  S
N2329      O2339   1.262       .  A
N2329      O2340   1.262       .  A
N2331      O2337   1.262       .  A
N2331      O2338   1.262       .  A
C2341      C2342   1.399       .  A
C2341      C2346   1.404       .  A
C2341      H2351   1.086       .  S
C2342      C2347   1.483       .  S
C2342      C2343   1.408       .  A
C2343      C2344   1.400       .  A
C2343      N2348   1.428       .  S
C2344      C2345   1.407       .  A
C2344      H2349   1.085       .  S
C2345      C2346   1.421       .  A
C2346      N2350   1.428       .  S
C2347      C2352   1.409       .  A
C2347      C2356   1.400       .  A
N2348      O2363   1.262       .  A
N2348      O2364   1.262       .  A
N2350      O2361   1.262       .  A
N2350      O2362   1.262       .  A
C2352      C2353   1.401       .  A
C2352      N2357   1.429       .  S
C2353      C2354   1.408       .  A
C2353      H2358   1.085       .  S
C2354      C2355   1.418       .  A
C2355      C2356   1.400       .  A
C2355      N2359   1.428       .  S
C2356      H2360   1.086       .  S
N2357      O2367   1.262       .  A
N2357      O2368   1.262       .  A
N2359      O2365   1.262       .  A
N2359      O2366   1.262       .  A
C2369      C2370   1.395       .  A
C2369      C2374   1.398       .  A
C2369      H2379   1.086       .  S
C2370      C2375   1.473       .  S
C2370      C2371   1.403       .  A
C2371      C2372   1.397       .  A
C2371      N2376   1.428       .  S
C2372      C2373   1.409       .  A
C2372      H2377   1.084       .  S
C2373      C2374   1.417       .  A
C2374      N2378   1.423       .  S
C2375      C2380   1.406       .  A
C2375      C2384   1.398       .  A
N2376      O2391   1.262       .  A
N2376      O2392   1.262       .  A
N2378      O2389   1.262       .  A
N2378      O2390   1.262       .  A
C2380      C2381   1.396       .  A
C2380      N2385   1.429       .  S
C2381      C2382   1.407       .  A
C2381      H2386   1.085       .  S
C2382      C2383   1.419       .  A
C2383      C2384   1.399       .  A
C2383      N2387   1.429       .  S
C2384      H2388   1.086       .  S
N2385      O2395   1.262       .  A
N2385      O2396   1.262       .  A
N2387      O2393   1.262       .  A
N2387      O2394   1.262       .  A
C2397      C2398   1.401       .  A
C2397      C2402   1.404       .  A
C2397      H2407   1.086       .  S
C2398      C2403   1.484       .  S
C2398      C2399   1.409       .  A
C2399      C2400   1.396       .  A
C2399      N2404   1.428       .  S
C2400      C2401   1.404       .  A
C2400      H2405   1.085       .  S
C2401      C2402   1.420       .  A
C2402      N2406   1.429       .  S
C2403      C2408   1.412       .  A
C2403      C2412   1.402       .  A
N2404      O2419   1.262       .  A
N2404      O2420   1.262       .  A
N2406      O2417   1.262   1_655  A
N2406      O2418   1.262   1_554  A
C2408      C2409   1.403       .  A
C2408      N2413   1.428       .  S
C2409      C2410   1.403       .  A
C2409      H2414   1.086       .  S
C2410      C2411   1.411       .  A
C2411      C2412   1.398       .  A
C2411      N2415   1.429       .  S
C2412      H2416   1.086       .  S
N2413      O2423   1.262       .  A
N2413      O2424   1.262       .  A
N2415      O2421   1.262       .  A
N2415      O2422   1.262       .  A
C2425      C2426   1.401       .  A
C2425      C2430   1.402       .  A
C2425      H2435   1.086       .  S
C2426      C2431   1.477       .  S
C2426      C2427   1.406       .  A
C2427      C2428   1.394       .  A
C2427      N2432   1.428       .  S
C2428      C2429   1.405       .  A
C2428      H2433   1.085       .  S
C2429      C2430   1.419       .  A
C2430      N2434   1.429       .  S
C2431      C2436   1.405       .  A
C2431      C2440   1.401       .  A
N2432      O2447   1.262       .  A
N2432      O2448   1.262       .  A
N2434      O2445   1.262       .  A
N2434      O2446   1.262       .  A
C2436      C2437   1.396       .  A
C2436      N2441   1.429       .  S
C2437      C2438   1.409       .  A
C2437      H2442   1.085       .  S
C2438      C2439   1.416       .  A
C2439      C2440   1.400       .  A
C2439      N2443   1.428       .  S
C2440      H2444   1.086       .  S
N2441      O2451   1.262       .  A
N2441      O2452   1.262       .  A
N2443      O2449   1.262       .  A
N2443      O2450   1.262       .  A
C2453      C2454   1.400       .  A
C2453      C2458   1.401       .  A
C2453      H2463   1.085       .  S
C2454      C2459   1.481       .  S
C2454      C2455   1.410       .  A
C2455      C2456   1.399       .  A
C2455      N2460   1.429       .  S
C2456      C2457   1.405       .  A
C2456      H2461   1.086       .  S
C2457      C2458   1.411       .  A
C2458      N2462   1.426       .  S
C2459      C2464   1.408       .  A
C2459      C2468   1.403       .  A
N2460      O2475   1.262       .  A
N2460      O2476   1.262       .  A
N2462      O2473   1.262       .  A
N2462      O2474   1.261       .  A
C2464      C2465   1.396       .  A
C2464      N2469   1.429       .  S
C2465      C2466   1.406       .  A
C2465      H2470   1.085       .  S
C2466      C2467   1.415       .  A
C2467      C2468   1.404       .  A
C2467      N2471   1.428       .  S
C2468      H2472   1.085       .  S
N2469      O2479   1.262       .  A
N2469      O2480   1.262       .  A
N2471      O2477   1.262       .  A
N2471      O2478   1.262       .  A
C2481      C2482   1.400       .  A
C2481      C2486   1.400       .  A
C2481      H2491   1.085       .  S
C2482      C2487   1.478       .  S
C2482      C2483   1.407       .  A
C2483      C2484   1.396       .  A
C2483      N2488   1.429       .  S
C2484      C2485   1.407       .  A
C2484      H2489   1.085       .  S
C2485      C2486   1.414       .  A
C2486      N2490   1.426       .  S
C2487      C2492   1.409       .  A
C2487      C2496   1.401       .  A
N2488      O2503   1.262       .  A
N2488      O2504   1.262       .  A
N2490      O2501   1.262       .  A
N2490      O2502   1.262   1_655  A
C2492      C2493   1.399       .  A
C2492      N2497   1.428       .  S
C2493      C2494   1.404       .  A
C2493      H2498   1.086       .  S
C2494      C2495   1.412       .  A
C2495      C2496   1.397       .  A
C2495      N2499   1.429       .  S
C2496      H2500   1.086       .  S
N2497      O2507   1.262       .  A
N2497      O2508   1.262       .  A
N2499      O2505   1.262       .  A
N2499      O2506   1.262       .  A
C2509      C2510   1.403       .  A
C2509      C2514   1.401       .  A
C2509      H2519   1.085       .  S
C2510      C2515   1.483       .  S
C2510      C2511   1.408       .  A
C2511      C2512   1.398       .  A
C2511      N2516   1.428       .  S
C2512      C2513   1.404       .  A
C2512      H2517   1.086       .  S
C2513      C2514   1.415       .  A
C2514      N2518   1.429       .  S
C2515      C2520   1.408       .  A
C2515      C2524   1.405       .  A
N2516      O2531   1.262       .  A
N2516      O2532   1.262       .  A
N2518      O2529   1.262       .  A
N2518      O2530   1.262       .  A
C2520      C2521   1.394       .  A
C2520      N2525   1.429       .  S
C2521      C2522   1.406       .  A
C2521      H2526   1.086       .  S
C2522      C2523   1.413       .  A
C2523      C2524   1.404       .  A
C2523      N2527   1.428       .  S
C2524      H2528   1.085       .  S
N2525      O2535   1.262       .  A
N2525      O2536   1.262       .  A
N2527      O2533   1.262       .  A
N2527      O2534   1.262       .  A
C2537      C2538   1.400       .  A
C2537      C2542   1.400       .  A
C2537      H2547   1.086       .  S
C2538      C2543   1.474       .  S
C2538      C2539   1.404       .  A
C2539      C2540   1.398       .  A
C2539      N2544   1.428       .  S
C2540      C2541   1.410       .  A
C2540      H2545   1.085       .  S
C2541      C2542   1.417       .  A
C2542      N2546   1.429       .  S
C2543      C2548   1.404       .  A
C2543      C2552   1.395       .  A
N2544      O2559   1.262       .  A
N2544      O2560   1.262       .  A
N2546      O2557   1.262       .  A
N2546      O2558   1.262       .  A
C2548      C2549   1.400       .  A
C2548      N2553   1.428       .  S
C2549      C2550   1.412       .  A
C2549      H2554   1.085       .  S
C2550      C2551   1.418       .  A
C2551      C2552   1.397       .  A
C2551      N2555   1.426       .  S
C2552      H2556   1.086       .  S
N2553      O2563   1.262       .  A
N2553      O2564   1.262       .  A
N2555      O2561   1.262       .  A
N2555      O2562   1.262       .  A
C2565      C2566   1.401       .  A
C2565      C2570   1.402       .  A
C2565      H2575   1.086       .  S
C2566      C2571   1.480       .  S
C2566      C2567   1.407       .  A
C2567      C2568   1.395       .  A
C2567      N2572   1.429       .  S
C2568      C2569   1.408       .  A
C2568      H2573   1.085       .  S
C2569      C2570   1.418       .  A
C2570      N2574   1.429       .  S
C2571      C2576   1.407       .  A
C2571      C2580   1.402       .  A
N2572      O2587   1.262       .  A
N2572      O2588   1.262       .  A
N2574      O2585   1.262       .  A
N2574      O2586   1.262       .  A
C2576      C2577   1.395       .  A
C2576      N2581   1.428       .  S
C2577      C2578   1.405       .  A
C2577      H2582   1.085       .  S
C2578      C2579   1.416       .  A
C2579      C2580   1.401       .  A
C2579      N2583   1.429       .  S
C2580      H2584   1.086       .  S
N2581      O2591   1.262       .  A
N2581      O2592   1.262       .  A
N2583      O2589   1.262       .  A
N2583      O2590   1.262       .  A
C2593      C2594   1.403       .  A
C2593      C2598   1.401       .  A
C2593      H2603   1.085       .  S
C2594      C2599   1.483       .  S
C2594      C2595   1.412       .  A
C2595      C2596   1.394       .  A
C2595      N2600   1.429       .  S
C2596      C2597   1.401       .  A
C2596      H2601   1.086       .  S
C2597      C2598   1.414       .  A
C2598      N2602   1.429       .  S
C2599      C2604   1.411       .  A
C2599      C2608   1.401       .  A
N2600      O2615   1.262       .  A
N2600      O2616   1.262       .  A
N2602      O2613   1.262       .  A
N2602      O2614   1.262       .  A
C2604      C2605   1.400       .  A
C2604      N2609   1.429       .  S
C2605      C2606   1.405       .  A
C2605      H2610   1.086       .  S
C2606      C2607   1.414       .  A
C2607      C2608   1.396       .  A
C2607      N2611   1.429       .  S
C2608      H2612   1.086       .  S
N2609      O2619   1.262       .  A
N2609      O2620   1.262       .  A
N2611      O2617   1.262       .  A
N2611      O2618   1.262       .  A
C2621      C2622   1.400   1_544  A
C2621      C2626   1.398       .  A
C2621      H2631   1.086       .  S
C2622      C2627   1.477       .  S
C2622      C2623   1.408       .  A
C2623      C2624   1.399       .  A
C2623      N2628   1.429       .  S
C2624      C2625   1.408   1_565  A
C2624      H2629   1.085       .  S
C2625      C2626   1.415   1_556  A
C2626      N2630   1.428       .  S
C2627      C2632   1.410       .  A
C2627      C2636   1.400   1_565  A
N2628      O2643   1.262       .  A
N2628      O2644   1.262       .  A
N2630      O2641   1.262       .  A
N2630      O2642   1.262       .  A
C2632      C2633   1.401   1_556  A
C2632      N2637   1.429   1_556  S
C2633      C2634   1.404   1_564  A
C2633      H2638   1.086       .  S
C2634      C2635   1.409       .  A
C2635      C2636   1.397       .  A
C2635      N2639   1.427       .  S
C2636      H2640   1.086       .  S
N2637      O2647   1.262       .  A
N2637      O2648   1.262   1_554  A
N2639      O2645   1.261   1_556  A
N2639      O2646   1.262       .  A
C2649      C2650   1.399       .  A
C2649      C2654   1.403       .  A
C2649      H2659   1.086       .  S
C2650      C2655   1.480       .  S
C2650      C2651   1.407   1_655  A
C2651      C2652   1.398       .  A
C2651      N2656   1.428   1_556  S
C2652      C2653   1.405   1_455  A
C2652      H2657   1.085   1_556  S
C2653      C2654   1.418       .  A
C2654      N2658   1.428       .  S
C2655      C2660   1.408       .  A
C2655      C2664   1.401   1_656  A
N2656      O2671   1.262       .  A
N2656      O2672   1.262   1_554  A
N2658      O2669   1.262       .  A
N2658      O2670   1.262   1_556  A
C2660      C2661   1.398       .  A
C2660      N2665   1.428       .  S
C2661      C2662   1.405       .  A
C2661      H2666   1.086       .  S
C2662      C2663   1.415   1_656  A
C2663      C2664   1.401       .  A
C2663      N2667   1.429       .  S
C2664      H2668   1.086       .  S
N2665      O2675   1.262       .  A
N2665      O2676   1.262       .  A
N2667      O2673   1.262   1_455  A
N2667      O2674   1.262       .  A
C2677      C2678   1.406   1_565  A
C2677      C2682   1.404       .  A
C2677      H2687   1.084       .  S
C2678      C2683   1.502       .  S
C2678      C2679   1.415   1_655  A
C2679      C2680   1.402       .  A
C2679      N2684   1.429       .  S
C2680      C2681   1.408   1_455  A
C2680      H2685   1.085       .  S
C2681      C2682   1.418   1_545  A
C2682      N2686   1.429       .  S
C2683      C2688   1.418       .  A
C2683      C2692   1.410   1_655  A
N2684      O2699   1.262       .  A
N2684      O2700   1.262       .  A
N2686      O2697   1.262       .  A
N2686      O2698   1.262       .  A
C2688      C2689   1.402       .  A
C2688      N2693   1.429       .  S
C2689      C2690   1.400       .  A
C2689      H2694   1.084       .  S
C2690      C2691   1.409   1_655  A
C2691      C2692   1.405       .  A
C2691      N2695   1.430       .  S
C2692      H2696   1.082       .  S
N2693      O2703   1.262   1_545  A
N2693      O2704   1.262       .  A
N2695      O2701   1.262   1_545  A
N2695      O2702   1.262       .  A
C2705      C2706   1.402   1_556  A
C2705      C2710   1.401       .  A
C2705      H2715   1.086       .  S
C2706      C2711   1.482       .  S
C2706      C2707   1.408   1_455  A
C2707      C2708   1.398       .  A
C2707      N2712   1.428       .  S
C2708      C2709   1.406   1_655  A
C2708      H2713   1.085       .  S
C2709      C2710   1.417   1_554  A
C2710      N2714   1.429       .  S
C2711      C2716   1.409       .  A
C2711      C2720   1.402   1_455  A
N2712      O2727   1.262       .  A
N2712      O2728   1.262   1_655  A
N2714      O2725   1.262       .  A
N2714      O2726   1.262       .  A
C2716      C2717   1.398       .  A
C2716      N2721   1.428       .  S
C2717      C2718   1.403       .  A
C2717      H2722   1.086       .  S
C2718      C2719   1.414   1_455  A
C2719      C2720   1.401       .  A
C2719      N2723   1.429       .  S
C2720      H2724   1.086       .  S
N2721      O2731   1.262   1_554  A
N2721      O2732   1.262       .  A
N2723      O2729   1.262   1_554  A
N2723      O2730   1.262       .  A
C2733      C2734   1.403   1_545  A
C2733      C2738   1.401       .  A
C2733      H2743   1.086       .  S
C2734      C2739   1.484   1_565  S
C2734      C2735   1.411       .  A
C2735      C2736   1.400       .  A
C2735      N2740   1.429       .  S
C2736      C2737   1.402       .  A
C2736      H2741   1.086       .  S
C2737      C2738   1.411   1_565  A
C2738      N2742   1.428       .  S
C2739      C2744   1.411   1_546  A
C2739      C2748   1.401       .  A
N2740      O2755   1.262       .  A
N2740      O2756   1.262   1_556  A
N2742      O2753   1.262   1_556  A
N2742      O2754   1.262       .  A
C2744      C2745   1.399       .  A
C2744      N2749   1.429       .  S
C2745      C2746   1.405   1_564  A
C2745      H2750   1.087       .  S
C2746      C2747   1.417       .  A
C2747      C2748   1.400       .  A
C2747      N2751   1.429       .  S
C2748      H2752   1.087       .  S
N2749      O2759   1.262       .  A
N2749      O2760   1.262       .  A
N2751      O2757   1.262       .  A
N2751      O2758   1.262       .  A
C2761      C2762   1.403   1_455  A
C2761      C2766   1.403       .  A
C2761      H2771   1.085       .  S
C2762      C2767   1.490       .  S
C2762      C2763   1.412   1_565  A
C2763      C2764   1.401       .  A
C2763      N2768   1.429       .  S
C2764      C2765   1.406   1_655  A
C2764      H2769   1.085       .  S
C2765      C2766   1.416   1_545  A
C2766      N2770   1.428       .  S
C2767      C2772   1.412   1_655  A
C2767      C2776   1.402   1_565  A
N2768      O2783   1.262       .  A
N2768      O2784   1.262   1_545  A
N2770      O2781   1.262       .  A
N2770      O2782   1.262   1_565  A
C2772      C2773   1.403       .  A
C2772      N2777   1.429       .  S
C2773      C2774   1.405   1_465  A
C2773      H2778   1.086       .  S
C2774      C2775   1.414       .  A
C2775      C2776   1.401       .  A
C2775      N2779   1.429       .  S
C2776      H2780   1.085       .  S
N2777      O2787   1.262       .  A
N2777      O2788   1.262   1_455  A
N2779      O2785   1.262   1_655  A
N2779      O2786   1.262       .  A
C2789      C2790   1.402       .  A
C2789      C2794   1.402       .  A
C2789      H2799   1.087   1_655  S
C2790      C2795   1.487       .  S
C2790      C2791   1.410       .  A
C2791      C2792   1.400       .  A
C2791      N2796   1.429       .  S
C2792      C2793   1.406       .  A
C2792      H2797   1.087       .  S
C2793      C2794   1.415       .  A
C2794      N2798   1.428   1_655  S
C2795      C2800   1.409       .  A
C2795      C2804   1.402   1_655  A
N2796      O2811   1.262       .  A
N2796      O2812   1.262       .  A
N2798      O2809   1.262   1_455  A
N2798      O2810   1.262       .  A
C2800      C2801   1.396       .  A
C2800      N2805   1.428       .  S
C2801      C2802   1.405       .  A
C2801      H2806   1.088       .  S
C2802      C2803   1.421   1_655  A
C2803      C2804   1.403       .  A
C2803      N2807   1.429       .  S
C2804      H2808   1.088       .  S
N2805      O2815   1.262       .  A
N2805      O2816   1.262       .  A
N2807      O2813   1.262       .  A
N2807      O2814   1.262       .  A
C2817      C2818   1.396       .  A
C2817      C2822   1.398       .  A
C2817      H2827   1.087       .  S
C2818      C2823   1.472       .  S
C2818      C2819   1.405       .  A
C2819      C2820   1.398       .  A
C2819      N2824   1.428       .  S
C2820      C2821   1.407       .  A
C2820      H2825   1.086       .  S
C2821      C2822   1.419       .  A
C2822      N2826   1.428       .  S
C2823      C2828   1.402       .  A
C2823      C2832   1.396       .  A
N2824      O2839   1.262       .  A
N2824      O2840   1.262       .  A
N2826      O2837   1.262       .  A
N2826      O2838   1.261       .  A
C2828      C2829   1.396       .  A
C2828      N2833   1.428       .  S
C2829      C2830   1.410       .  A
C2829      H2834   1.083       .  S
C2830      C2831   1.418       .  A
C2831      C2832   1.400       .  A
C2831      N2835   1.423       .  S
C2832      H2836   1.086       .  S
N2833      O2843   1.262       .  A
N2833      O2844   1.262       .  A
N2835      O2841   1.262       .  A
N2835      O2842   1.262       .  A
C2845      C2846   1.401       .  A
C2845      C2850   1.402       .  A
C2845      H2855   1.086       .  S
C2846      C2851   1.484       .  S
C2846      C2847   1.412   1_655  A
C2847      C2848   1.396       .  A
C2847      N2852   1.429       .  S
C2848      C2849   1.402   1_455  A
C2848      H2853   1.086       .  S
C2849      C2850   1.416       .  A
C2850      N2854   1.427       .  S
C2851      C2856   1.409       .  A
C2851      C2860   1.395   1_655  A
N2852      O2867   1.262       .  A
N2852      O2868   1.261       .  A
N2854      O2865   1.261       .  A
N2854      O2866   1.262       .  A
C2856      C2857   1.402       .  A
C2856      N2861   1.429       .  S
C2857      C2858   1.412       .  A
C2857      H2862   1.085       .  S
C2858      C2859   1.417   1_655  A
C2859      C2860   1.397       .  A
C2859      N2863   1.422       .  S
C2860      H2864   1.086       .  S
N2861      O2871   1.262       .  A
N2861      O2872   1.262       .  A
N2863      O2869   1.262       .  A
N2863      O2870   1.262       .  A
C2873      C2874   1.403       .  A
C2873      C2878   1.403       .  A
C2873      H2883   1.085       .  S
C2874      C2879   1.485       .  S
C2874      C2875   1.409       .  A
C2875      C2876   1.400       .  A
C2875      N2880   1.428       .  S
C2876      C2877   1.406       .  A
C2876      H2881   1.085       .  S
C2877      C2878   1.416       .  A
C2878      N2882   1.429       .  S
C2879      C2884   1.408       .  A
C2879      C2888   1.401       .  A
N2880      O2895   1.262       .  A
N2880      O2896   1.261       .  A
N2882      O2893   1.262       .  A
N2882      O2894   1.262       .  A
C2884      C2885   1.399       .  A
C2884      N2889   1.428       .  S
C2885      C2886   1.408       .  A
C2885      H2890   1.085       .  S
C2886      C2887   1.421       .  A
C2887      C2888   1.404       .  A
C2887      N2891   1.429       .  S
C2888      H2892   1.085       .  S
N2889      O2899   1.262       .  A
N2889      O2900   1.262       .  A
N2891      O2897   1.262       .  A
N2891      O2898   1.262       .  A
C2901      C2902   1.399       .  A
C2901      C2906   1.400       .  A
C2901      H2911   1.086       .  S
C2902      C2907   1.476       .  S
C2902      C2903   1.404   1_455  A
C2903      C2904   1.398       .  A
C2903      N2908   1.428       .  S
C2904      C2905   1.411   1_655  A
C2904      H2909   1.085       .  S
C2905      C2906   1.418       .  A
C2906      N2910   1.428       .  S
C2907      C2912   1.406   1_455  A
C2907      C2916   1.400       .  A
N2908      O2923   1.262       .  A
N2908      O2924   1.262       .  A
N2910      O2921   1.262       .  A
N2910      O2922   1.262       .  A
C2912      C2913   1.395       .  A
C2912      N2917   1.428       .  S
C2913      C2914   1.404   1_655  A
C2913      H2918   1.086       .  S
C2914      C2915   1.418       .  A
C2915      C2916   1.403       .  A
C2915      N2919   1.428       .  S
C2916      H2920   1.086       .  S
N2917      O2927   1.262       .  A
N2917      O2928   1.262       .  A
N2919      O2925   1.262       .  A
N2919      O2926   1.262       .  A
C2929      C2930   1.401       .  A
C2929      C2934   1.402       .  A
C2929      H2939   1.086       .  S
C2930      C2935   1.480       .  S
C2930      C2931   1.407   1_455  A
C2931      C2932   1.398       .  A
C2931      N2936   1.428       .  S
C2932      C2933   1.407   1_655  A
C2932      H2937   1.085       .  S
C2933      C2934   1.418       .  A
C2934      N2938   1.429       .  S
C2935      C2940   1.407       .  A
C2935      C2944   1.400   1_455  A
N2936      O2951   1.262       .  A
N2936      O2952   1.262       .  A
N2938      O2949   1.262       .  A
N2938      O2950   1.261       .  A
C2940      C2941   1.400       .  A
C2940      N2945   1.428       .  S
C2941      C2942   1.407   1_455  A
C2941      H2946   1.085       .  S
C2942      C2943   1.418       .  A
C2943      C2944   1.400       .  A
C2943      N2947   1.429       .  S
C2944      H2948   1.086       .  S
N2945      O2955   1.262       .  A
N2945      O2956   1.262       .  A
N2947      O2953   1.262       .  A
N2947      O2954   1.262       .  A
C2957      C2958   1.403       .  A
C2957      C2962   1.399       .  A
C2957      H2967   1.086       .  S
C2958      C2963   1.482       .  S
C2958      C2959   1.411       .  A
C2959      C2960   1.399       .  A
C2959      N2964   1.429       .  S
C2960      C2961   1.402       .  A
C2960      H2965   1.086       .  S
C2961      C2962   1.412       .  A
C2962      N2966   1.429       .  S
C2963      C2968   1.409       .  A
C2963      C2972   1.403       .  A
N2964      O2979   1.262       .  A
N2964      O2980   1.262       .  A
N2966      O2977   1.262       .  A
N2966      O2978   1.262       .  A
C2968      C2969   1.399       .  A
C2968      N2973   1.429       .  S
C2969      C2970   1.407       .  A
C2969      H2974   1.085       .  S
C2970      C2971   1.414       .  A
C2971      C2972   1.400       .  A
C2971      N2975   1.428       .  S
C2972      H2976   1.085       .  S
N2973      O2983   1.262       .  A
N2973      O2984   1.262       .  A
N2975      O2981   1.262       .  A
N2975      O2982   1.262       .  A
C2985      C2986   1.404   1_565  A
C2985      C2990   1.402       .  A
C2985      H2995   1.086       .  S
C2986      C2991   1.487       .  S
C2986      C2987   1.412       .  A
C2987      C2988   1.401       .  A
C2987      N2992   1.429       .  S
C2988      C2989   1.405       .  A
C2988      H2993   1.086       .  S
C2989      C2990   1.412   1_545  A
C2990      N2994   1.428       .  S
C2991      C2996   1.411       .  A
C2991      C3000   1.403   1_545  A
N2992      O3007   1.262   1_545  A
N2992      O3008   1.262       .  A
N2994      O3005   1.262   1_565  A
N2994      O3006   1.262       .  A
C2996      C2997   1.400       .  A
C2996      N3001   1.429       .  S
C2997      C2998   1.406   1_545  A
C2997      H3002   1.085       .  S
C2998      C2999   1.415       .  A
C2999      C3000   1.403       .  A
C2999      N3003   1.428       .  S
C3000      H3004   1.086       .  S
N3001      O3011   1.262       .  A
N3001      O3012   1.262       .  A
N3003      O3009   1.262       .  A
N3003      O3010   1.262       .  A
C3013      C3014   1.403       .  A
C3013      C3018   1.402       .  A
C3013      H3023   1.085       .  S
C3014      C3019   1.487       .  S
C3014      C3015   1.412   1_545  A
C3015      C3016   1.398       .  A
C3015      N3020   1.429       .  S
C3016      C3017   1.405       .  A
C3016      H3021   1.085       .  S
C3017      C3018   1.416   1_565  A
C3018      N3022   1.429       .  S
C3019      C3024   1.413       .  A
C3019      C3028   1.403   1_545  A
N3020      O3035   1.262       .  A
N3020      O3036   1.262       .  A
N3022      O3033   1.262       .  A
N3022      O3034   1.262       .  A
C3024      C3025   1.399       .  A
C3024      N3029   1.429       .  S
C3025      C3026   1.403       .  A
C3025      H3030   1.086       .  S
C3026      C3027   1.411   1_545  A
C3027      C3028   1.400       .  A
C3027      N3031   1.429       .  S
C3028      H3032   1.085       .  S
N3029      O3039   1.262       .  A
N3029      O3040   1.262       .  A
N3031      O3037   1.262       .  A
N3031      O3038   1.261       .  A
C3041      C3042   1.401       .  A
C3041      C3046   1.399       .  A
C3041      H3051   1.086       .  S
C3042      C3047   1.475       .  S
C3042      C3043   1.408       .  A
C3043      C3044   1.397       .  A
C3043      N3048   1.429       .  S
C3044      C3045   1.403       .  A
C3044      H3049   1.086       .  S
C3045      C3046   1.412       .  A
C3046      N3050   1.429       .  S
C3047      C3052   1.406       .  A
C3047      C3056   1.396       .  A
N3048      O3063   1.262       .  A
N3048      O3064   1.261       .  A
N3050      O3061   1.262       .  A
N3050      O3062   1.262       .  A
C3052      C3053   1.400       .  A
C3052      N3057   1.429       .  S
C3053      C3054   1.410       .  A
C3053      H3058   1.085       .  S
C3054      C3055   1.415       .  A
C3055      C3056   1.398       .  A
C3055      N3059   1.423       .  S
C3056      H3060   1.086       .  S
N3057      O3067   1.262       .  A
N3057      O3068   1.261       .  A
N3059      O3065   1.261       .  A
N3059      O3066   1.262       .  A
C3069      C3070   1.399       .  A
C3069      C3074   1.399       .  A
C3069      H3079   1.086       .  S
C3070      C3075   1.481       .  S
C3070      C3071   1.409   1_565  A
C3071      C3072   1.400       .  A
C3071      N3076   1.429       .  S
C3072      C3073   1.406   1_545  A
C3072      H3077   1.085       .  S
C3073      C3074   1.414       .  A
C3074      N3078   1.426       .  S
C3075      C3080   1.408   1_565  A
C3075      C3084   1.402       .  A
N3076      O3091   1.262       .  A
N3076      O3092   1.262       .  A
N3078      O3089   1.262       .  A
N3078      O3090   1.262       .  A
C3080      C3081   1.399       .  A
C3080      N3085   1.429       .  S
C3081      C3082   1.407   1_545  A
C3081      H3086   1.085       .  S
C3082      C3083   1.415       .  A
C3083      C3084   1.401       .  A
C3083      N3087   1.428       .  S
C3084      H3088   1.086       .  S
N3085      O3095   1.262   1_545  A
N3085      O3096   1.261       .  A
N3087      O3093   1.262       .  A
N3087      O3094   1.262       .  A
C3097      C3098   1.401       .  A
C3097      C3102   1.398       .  A
C3097      H3107   1.086       .  S
C3098      C3103   1.478       .  S
C3098      C3099   1.409   1_545  A
C3099      C3100   1.396       .  A
C3099      N3104   1.429       .  S
C3100      C3101   1.404   1_565  A
C3100      H3105   1.086       .  S
C3101      C3102   1.415       .  A
C3102      N3106   1.429       .  S
C3103      C3108   1.409       .  A
C3103      C3112   1.401   1_545  A
N3104      O3119   1.262       .  A
N3104      O3120   1.262   1_565  A
N3106      O3117   1.262       .  A
N3106      O3118   1.262   1_545  A
C3108      C3109   1.396       .  A
C3108      N3113   1.428       .  S
C3109      C3110   1.403   1_545  A
C3109      H3114   1.085       .  S
C3110      C3111   1.414       .  A
C3111      C3112   1.399       .  A
C3111      N3115   1.429       .  S
C3112      H3116   1.086       .  S
N3113      O3123   1.262       .  A
N3113      O3124   1.262       .  A
N3115      O3121   1.262       .  A
N3115      O3122   1.261       .  A
C3125      C3126   1.402   1_554  A
C3125      C3130   1.401       .  A
C3125      H3135   1.086       .  S
C3126      C3131   1.487       .  S
C3126      C3127   1.412       .  A
C3127      C3128   1.400       .  A
C3127      N3132   1.429       .  S
C3128      C3129   1.405   1_556  A
C3128      H3133   1.086       .  S
C3129      C3130   1.415       .  A
C3130      N3134   1.429       .  S
C3131      C3136   1.412   1_556  A
C3131      C3140   1.401       .  A
N3132      O3147   1.262       .  A
N3132      O3148   1.262       .  A
N3134      O3145   1.262       .  A
N3134      O3146   1.262       .  A
C3136      C3137   1.402       .  A
C3136      N3141   1.429       .  S
C3137      C3138   1.405       .  A
C3137      H3142   1.086       .  S
C3138      C3139   1.415   1_554  A
C3139      C3140   1.400       .  A
C3139      N3143   1.429       .  S
C3140      H3144   1.086       .  S
N3141      O3151   1.262       .  A
N3141      O3152   1.262   1_554  A
N3143      O3149   1.262   1_556  A
N3143      O3150   1.262       .  A
C3153      C3154   1.401   1_554  A
C3153      C3158   1.399       .  A
C3153      H3163   1.086       .  S
C3154      C3159   1.485       .  S
C3154      C3155   1.412       .  A
C3155      C3156   1.398       .  A
C3155      N3160   1.429       .  S
C3156      C3157   1.404       .  A
C3156      H3161   1.086       .  S
C3157      C3158   1.418   1_556  A
C3158      N3162   1.429       .  S
C3159      C3164   1.412       .  A
C3159      C3168   1.403       .  A
N3160      O3175   1.262       .  A
N3160      O3176   1.262       .  A
N3162      O3173   1.262       .  A
N3162      O3174   1.262       .  A
C3164      C3165   1.398   1_556  A
C3164      N3169   1.429   1_556  S
C3165      C3166   1.404   1_554  A
C3165      H3170   1.086       .  S
C3166      C3167   1.414       .  A
C3167      C3168   1.399       .  A
C3167      N3171   1.429       .  S
C3168      H3172   1.085       .  S
N3169      O3179   1.262       .  A
N3169      O3180   1.262   1_554  A
N3171      O3177   1.262   1_556  A
N3171      O3178   1.262       .  A
C3181      C3182   1.402       .  A
C3181      C3186   1.401       .  A
C3181      H3191   1.085       .  S
C3182      C3187   1.483       .  S
C3182      C3183   1.410       .  A
C3183      C3184   1.396       .  A
C3183      N3188   1.429       .  S
C3184      C3185   1.405       .  A
C3184      H3189   1.085       .  S
C3185      C3186   1.417       .  A
C3186      N3190   1.429       .  S
C3187      C3192   1.411       .  A
C3187      C3196   1.403       .  A
N3188      O3203   1.262       .  A
N3188      O3204   1.262       .  A
N3190      O3201   1.262       .  A
N3190      O3202   1.262       .  A
C3192      C3193   1.398       .  A
C3192      N3197   1.429       .  S
C3193      C3194   1.402       .  A
C3193      H3198   1.086       .  S
C3194      C3195   1.410       .  A
C3195      C3196   1.399       .  A
C3195      N3199   1.428       .  S
C3196      H3200   1.085       .  S
N3197      O3207   1.262       .  A
N3197      O3208   1.262       .  A
N3199      O3205   1.261       .  A
N3199      O3206   1.262       .  A
C3209      C3210   1.402       .  A
C3209      C3214   1.398       .  A
C3209      H3219   1.086       .  S
C3210      C3215   1.483       .  S
C3210      C3211   1.411       .  A
C3211      C3212   1.400       .  A
C3211      N3216   1.429       .  S
C3212      C3213   1.405       .  A
C3212      H3217   1.086       .  S
C3213      C3214   1.411       .  A
C3214      N3218   1.427       .  S
C3215      C3220   1.411       .  A
C3215      C3224   1.403       .  A
N3216      O3231   1.262       .  A
N3216      O3232   1.262       .  A
N3218      O3229   1.261       .  A
N3218      O3230   1.262       .  A
C3220      C3221   1.400       .  A
C3220      N3225   1.429       .  S
C3221      C3222   1.405       .  A
C3221      H3226   1.085       .  S
C3222      C3223   1.412       .  A
C3223      C3224   1.400       .  A
C3223      N3227   1.428       .  S
C3224      H3228   1.085       .  S
N3225      O3235   1.262       .  A
N3225      O3236   1.262       .  A
N3227      O3233   1.262       .  A
N3227      O3234   1.262       .  A
C3237      C3238   1.399   1_556  A
C3237      C3242   1.398       .  A
C3237      H3247   1.086       .  S
C3238      C3243   1.470       .  S
C3238      C3239   1.406       .  A
C3239      C3240   1.395       .  A
C3239      N3244   1.429       .  S
C3240      C3241   1.405       .  A
C3240      H3245   1.086       .  S
C3241      C3242   1.416   1_554  A
C3242      N3246   1.429       .  S
C3243      C3248   1.407       .  A
C3243      C3252   1.397       .  A
N3244      O3259   1.262       .  A
N3244      O3260   1.261       .  A
N3246      O3257   1.262       .  A
N3246      O3258   1.262       .  A
C3248      C3249   1.397       .  A
C3248      N3253   1.429       .  S
C3249      C3250   1.404       .  A
C3249      H3254   1.086       .  S
C3250      C3251   1.412       .  A
C3251      C3252   1.397       .  A
C3251      N3255   1.427       .  S
C3252      H3256   1.086       .  S
N3253      O3263   1.262   1_554  A
N3253      O3264   1.261       .  A
N3255      O3261   1.261   1_554  A
N3255      O3262   1.262       .  A
C3265      C3266   1.401       .  A
C3265      C3270   1.400       .  A
C3265      H3275   1.086       .  S
C3266      C3271   1.479       .  S
C3266      C3267   1.408   1_554  A
C3267      C3268   1.396       .  A
C3267      N3272   1.428       .  S
C3268      C3269   1.405   1_556  A
C3268      H3273   1.085       .  S
C3269      C3270   1.415       .  A
C3270      N3274   1.427       .  S
C3271      C3276   1.408       .  A
C3271      C3280   1.400       .  A
N3272      O3287   1.262       .  A
N3272      O3288   1.262       .  A
N3274      O3285   1.262       .  A
N3274      O3286   1.261       .  A
C3276      C3277   1.398       .  A
C3276      N3281   1.428       .  S
C3277      C3278   1.405       .  A
C3277      H3282   1.086       .  S
C3278      C3279   1.414       .  A
C3279      C3280   1.400       .  A
C3279      N3283   1.428       .  S
C3280      H3284   1.086       .  S
N3281      O3291   1.262       .  A
N3281      O3292   1.262   1_554  A
N3283      O3289   1.262       .  A
N3283      O3290   1.261   1_554  A
