geometry optimzed in LAMMPS
_audit_creation_date              2020-11-30 
_audit_creation_method            'lammps2cif' 
_symmetry_space_group_name_H-M    'P1' 
_symmetry_Int_Tables_number       1 
_symmetry_cell_setting            triclinic 
loop_ 
_symmetry_equiv_pos_as_xyz 
  x,y,z 
_cell_length_a                    49.63538889 
_cell_length_b                    49.53845243353169 
_cell_length_c                    49.51800766273335 
_cell_angle_alpha                 89.99664978719734 
_cell_angle_beta                  90.13595783774679 
_cell_angle_gamma                 90.02224468890519 
loop_ 
_atom_site_label 
_atom_site_type_symbol 
_atom_site_fract_x 
_atom_site_fract_y 
_atom_site_fract_z 
_atom_site_charge 
C1          C  0.13418232  0.73052054  0.97288068     0.80300
N2          N  0.10690954  0.73160753  0.97439219    -0.78000
C3          C  0.09446444  0.73206083  0.99883637     0.82700
N4          N  0.10953639  0.73158041  0.02187194    -0.78000
C5          C  0.13689056  0.73015099  0.02043179     0.82800
N6          N  0.14892353  0.72975007  0.99592767    -0.79700
C7          C  0.32546190  0.54247474  0.02648352     0.80300
N8          N  0.31788071  0.51613071  0.02554168    -0.78000
C9          C  0.31441263  0.50355914  0.00134840     0.82700
N10         N  0.31815796  0.51764289  0.97804807    -0.78000
C11         C  0.32557237  0.54408707  0.97876093     0.82800
N12         N  0.32895369  0.55631721  0.00308302    -0.79700
C13         C  0.02332179  0.26269424  0.02630801     0.80300
N14         N  0.05040673  0.26073296  0.02451928    -0.78000
C15         C  0.06241705  0.25884383  0.00004811     0.82700
N16         N  0.04713098  0.25857846  0.97721199    -0.78000
C17         C  0.01977532  0.26020420  0.97880191     0.82800
N18         N  0.00818446  0.26197896  0.00351331    -0.79700
C19         C  0.81474742  0.43245733  0.97417600     0.80300
N20         N  0.81587692  0.45983323  0.97380672    -0.78000
C21         C  0.81813032  0.47406443  0.99711767     0.82700
N22         N  0.81922784  0.46084561  0.02107512    -0.78000
C23         C  0.81753986  0.43355201  0.02181780     0.82800
N24         N  0.81541149  0.41942020  0.99836060    -0.79700
C25         C  0.81845343  0.01266434  0.05643367     0.80300
N26         N  0.81742526  0.98921399  0.07052496    -0.78000
C27         C  0.81578087  0.96509302  0.05760259     0.82700
N28         N  0.81495506  0.96467651  0.03017782    -0.78000
C29         C  0.81578632  0.98806965  0.01587549     0.82800
N30         N  0.81737166  0.01200268  0.02908637    -0.79700
C31         C  0.63818086  0.01112890  0.23520228     0.80300
N32         N  0.61094916  0.01203494  0.23754809    -0.78000
C33         C  0.59643527  0.98877686  0.23876255     0.82700
N34         N  0.60926591  0.96455812  0.23728621    -0.78000
C35         C  0.63644893  0.96353154  0.23431022     0.82800
N36         N  0.65075469  0.98687319  0.23363781    -0.79700
C37         C  0.34662740  0.96477048  0.93691658     0.80300
N38         N  0.34559880  0.98872914  0.92356997    -0.78000
C39         C  0.34490548  0.01239351  0.93742751     0.82700
N40         N  0.34476754  0.01185915  0.96483528    -0.78000
C41         C  0.34560878  0.98805181  0.97835643     0.82800
N42         N  0.34635564  0.96450937  0.96433874    -0.79700
C43         C  0.52125651  0.96457511  0.74982953     0.80300
N44         N  0.54844146  0.96475101  0.74690922    -0.78000
C45         C  0.56220268  0.98844864  0.74637125     0.82700
N46         N  0.54868001  0.01217300  0.74889888    -0.78000
C47         C  0.52154277  0.01220284  0.75224225     0.82800
N48         N  0.50795830  0.98840960  0.75225908    -0.79700
C49         C  0.02466675  0.73600570  0.02536723     0.80300
N50         N  0.05197515  0.73392852  0.02435255    -0.78000
C51         C  0.06486895  0.73367752  0.00009958     0.82700
N52         N  0.05029750  0.73546579  0.97682698    -0.78000
C53         C  0.02305169  0.73782276  0.97769956     0.82800
N54         N  0.01054839  0.73781785  0.00194726    -0.79700
C55         C  0.82407027  0.54500042  0.01947334     0.80300
N56         N  0.82212273  0.51768476  0.01986426    -0.78000
C57         C  0.81990600  0.50356256  0.99643494     0.82700
N58         N  0.81939849  0.51687285  0.97243965    -0.78000
C59         C  0.82172666  0.54416415  0.97182678     0.82800
N60         N  0.82378657  0.55798606  0.99537012    -0.79700
C61         C  0.13202897  0.25317078  0.97421484     0.80300
N62         N  0.14595335  0.25121687  0.99777981    -0.78000
C63         C  0.13306297  0.25195762  0.02191673     0.82700
N64         N  0.10592706  0.25452385  0.02221148    -0.78000
C65         C  0.09172758  0.25634167  0.99884349     0.82800
N66         N  0.10475992  0.25533178  0.97480410    -0.79700
C67         C  0.30111655  0.43451209  0.97538549     0.80300
N68         N  0.30630417  0.46147680  0.97634038    -0.78000
C69         C  0.30730385  0.47468755  0.00040669     0.82700
N70         N  0.30344010  0.46069210  0.02370717    -0.78000
C71         C  0.29793717  0.43382535  0.02295834     0.82800
N72         N  0.29725757  0.42090501  0.99883362    -0.79700
C73         C  0.81797235  0.96312462  0.94557779     0.80300
N74         N  0.82228961  0.98644677  0.93202903    -0.78000
C75         C  0.82417371  0.01028647  0.94515523     0.82700
N76         N  0.82121060  0.01084175  0.97239853    -0.78000
C77         C  0.81688464  0.98754035  0.98630974     0.82800
N78         N  0.81548679  0.96363821  0.97285850    -0.79700
C79         C  0.63191208  0.01210864  0.73527229     0.80300
N80         N  0.60478452  0.01201089  0.73855783    -0.78000
C81         C  0.59156677  0.98843241  0.74317252     0.82700
N82         N  0.60569321  0.96496979  0.74515367    -0.78000
C83         C  0.63296089  0.96518590  0.74281699     0.82800
N84         N  0.64581540  0.98873626  0.73768998    -0.79700
C85         C  0.34381409  0.01175401  0.04915744     0.80300
N86         N  0.34396416  0.01163493  0.02174786    -0.78000
C87         C  0.34545845  0.98791536  0.00798065     0.82700
N88         N  0.34678775  0.96419318  0.02175978    -0.78000
C89         C  0.34649549  0.96424676  0.04918518     0.82800
N90         N  0.34526670  0.98798913  0.06264715    -0.79700
C91         C  0.52536087  0.96749626  0.24601690     0.80300
N92         N  0.55251928  0.96655292  0.24301779    -0.78000
C93         C  0.56707248  0.98980412  0.24219108     0.82700
N94         N  0.55435626  0.01399433  0.24477264    -0.78000
C95         C  0.52721333  0.01502053  0.24805673     0.82800
N96         N  0.51299770  0.99166935  0.24872576    -0.79700
C97         C  0.05698172  0.04366110  0.75947068     0.80300
N98         N  0.05683034  0.01626556  0.75956972    -0.78000
C99         C  0.08031899  0.00222911  0.75976348     0.82700
N100        N  0.10415992  0.01569391  0.76006700    -0.78000
C101        C  0.10453630  0.04307135  0.76027782     0.82800
N102        N  0.08093498  0.05685312  0.76009840    -0.79700
C103        C  0.05410904  0.25106836  0.55451277     0.80300
N104        N  0.05444159  0.24973069  0.52714832    -0.78000
C105        C  0.07819174  0.24873178  0.51363084     0.82700
N106        N  0.10179494  0.24911505  0.52764806    -0.78000
C107        C  0.10177980  0.25036753  0.55506454     0.82800
N108        N  0.07782615  0.25142650  0.56817843    -0.79700
C109        C  0.10324578  0.93135458  0.75715978     0.80300
N110        N  0.07949454  0.91807634  0.75938425    -0.78000
C111        C  0.05598701  0.93164568  0.76237563     0.82700
N112        N  0.05628959  0.95908078  0.76223724    -0.78000
C113        C  0.07997165  0.97265664  0.75977607     0.82800
N114        N  0.10340364  0.95872765  0.75731788    -0.79700
C115        C  0.05478715  0.73267074  0.55425294     0.80300
N116        N  0.05566601  0.73481024  0.52700150    -0.78000
C117        C  0.07963413  0.73367652  0.51386531     0.82700
N118        N  0.10285288  0.73071867  0.52813687    -0.78000
C119        C  0.10212356  0.72863001  0.55550254     0.82800
N120        N  0.07807005  0.72996244  0.56829731    -0.79700
C121        C  0.10228456  0.93212300  0.25924917     0.80300
N122        N  0.10163994  0.95951275  0.25784937    -0.78000
C123        C  0.07781335  0.97278996  0.25498776     0.82700
N124        N  0.05450027  0.95854767  0.25333597    -0.78000
C125        C  0.05491252  0.93116156  0.25424558     0.82800
N126        N  0.07883330  0.91819688  0.25724457    -0.79700
C127        C  0.10351749  0.73823951  0.44319299     0.80300
N128        N  0.10358095  0.73714213  0.47062345    -0.78000
C129        C  0.08003093  0.73499933  0.48436278     0.82700
N130        N  0.05644396  0.73367793  0.47065098    -0.78000
C131        C  0.05592403  0.73464810  0.44336267     0.82800
N132        N  0.07958263  0.73679436  0.42974426    -0.79700
C133        C  0.05359020  0.04368215  0.25226290     0.80300
N134        N  0.05368377  0.01619463  0.25255057    -0.78000
C135        C  0.07740167  0.00241694  0.25422076     0.82700
N136        N  0.10101794  0.01618663  0.25544620    -0.78000
C137        C  0.10104360  0.04351518  0.25543149     0.82800
N138        N  0.07742737  0.05703965  0.25364550    -0.79700
C139        C  0.10226693  0.24404249  0.44314975     0.80300
N140        N  0.07861685  0.24155034  0.42959206    -0.78000
C141        C  0.05476641  0.24092921  0.44290674     0.82700
N142        N  0.05470818  0.24365153  0.47023748    -0.78000
C143        C  0.07829524  0.24649364  0.48405132     0.82800
N144        N  0.10202980  0.24670801  0.47042506    -0.79700
C145        C  0.32632058  0.51394301  0.44055117     0.80300
N146        N  0.32609350  0.49096279  0.42563733    -0.78000
C147        C  0.32652802  0.46643165  0.43774673     0.82700
N148        N  0.32747303  0.46489879  0.46507256    -0.78000
C149        C  0.32761841  0.48772719  0.48019485     0.82800
N150        N  0.32693046  0.51221362  0.46788719    -0.79700
C151        C  0.13829165  0.46598972  0.26589367     0.80300
N152        N  0.15148855  0.48977064  0.26302326    -0.78000
C153        C  0.13804136  0.51357423  0.26288704     0.82700
N154        N  0.11081226  0.51352650  0.26598944    -0.78000
C155        C  0.09719517  0.48978481  0.26847297     0.82800
N156        N  0.11101154  0.46606066  0.26821813    -0.79700
O157        O  0.28671797  0.74365558  0.17281578    -0.86400
O158        O  0.28801589  0.74428350  0.32668257    -0.86600
O159        O  0.25263198  0.70021896  0.25173612    -0.88300
O160        O  0.25539867  0.78802286  0.25023612    -0.87000
O161        O  0.28887962  0.82011334  0.25101575    -0.86600
O162        O  0.28473820  0.66684892  0.25300151    -0.88000
O163        O  0.25495050  0.74532038  0.29406227    -0.86500
O164        O  0.25375340  0.74326809  0.20524797    -0.86100
Zr165      Zr  0.27618067  0.74351443  0.24964816     2.84300
O166        O  0.30421128  0.77043580  0.27682847    -1.08000
O167        O  0.30239252  0.71522686  0.22248357    -1.08800
C168        C  0.26190586  0.74384832  0.18040099     1.06700
C169        C  0.26316978  0.74500746  0.31885099     1.06600
C170        C  0.26003723  0.67524206  0.25322834     1.09600
C171        C  0.26393996  0.81265712  0.25084141     1.07400
H172        H  0.29195327  0.70507782  0.28887217     0.32900
O173        O  0.30312177  0.71588250  0.27714705    -1.29000
H174        H  0.29282019  0.78180836  0.21079458     0.32600
O175        O  0.30373569  0.77024086  0.22207893    -1.30700
O176        O  0.37562663  0.74262609  0.32509993    -0.86400
O177        O  0.37321874  0.73830437  0.17193896    -0.87900
O178        O  0.33174132  0.66631288  0.29399512    -0.86500
O179        O  0.33593072  0.81943525  0.29288177    -0.86600
O180        O  0.33437482  0.81838490  0.20520474    -0.86300
O181        O  0.32692724  0.66516954  0.20617678    -0.86100
O182        O  0.40621353  0.69701451  0.24955929    -0.86500
O183        O  0.40837030  0.78417317  0.24874908    -0.85900
O184        O  0.37308928  0.66459271  0.24884925    -0.87000
O185        O  0.37644681  0.81765087  0.25017625    -0.86100
O186        O  0.33297320  0.69926531  0.32658800    -0.86500
O187        O  0.32689103  0.69783221  0.17331585    -0.86300
O188        O  0.33327873  0.78546585  0.17274591    -0.85900
O189        O  0.33564279  0.78663429  0.32564419    -0.86300
O190        O  0.40816997  0.74270781  0.29223682    -0.86600
O191        O  0.40630508  0.73920648  0.20444473    -0.88000
Zr192      Zr  0.33143754  0.74272369  0.30376764     2.83100
Zr193      Zr  0.33015436  0.74183776  0.19513887     2.83500
Zr194      Zr  0.32938712  0.68770510  0.24988880     2.84100
Zr195      Zr  0.33204771  0.79674108  0.24924274     2.83400
Zr196      Zr  0.38500157  0.74104052  0.24873473     2.84200
O197        O  0.35842495  0.76899069  0.22153788    -1.08500
O198        O  0.35773995  0.71447308  0.27664237    -1.08000
C199        C  0.40035393  0.74343144  0.31709210     1.06600
C200        C  0.39805110  0.73760246  0.17972737     1.09300
C201        C  0.33325255  0.67441903  0.31873078     1.06800
C202        C  0.33751383  0.81140299  0.31767566     1.07200
C203        C  0.33493064  0.81031252  0.18039810     1.06700
C204        C  0.32609879  0.67302373  0.18129571     1.06300
C205        C  0.39801564  0.67231125  0.24930304     1.06700
C206        C  0.40103794  0.80912485  0.24990996     1.06200
H207        H  0.36760388  0.70220384  0.21080613     0.32900
O208        O  0.35695062  0.71395056  0.22209242    -1.29600
H209        H  0.37065130  0.77988523  0.28701707     0.32900
O210        O  0.35885747  0.76892669  0.27605507    -1.31000
C211        C  0.52132639  0.22876346  0.47596559     0.80300
N212        N  0.54872158  0.22900762  0.47544137    -0.78000
C213        C  0.56308771  0.22910851  0.49891130     0.82700
N214        N  0.54989038  0.22936461  0.52295299    -0.78000
C215        C  0.52252764  0.22948534  0.52369109     0.82800
N216        N  0.50848209  0.22910543  0.50012220    -0.79700
C217        C  0.35380028  0.04861677  0.48027779     0.80300
N218        N  0.35425562  0.06130008  0.50461886    -0.78000
C219        C  0.35317865  0.04684058  0.52790640     0.82700
N220        N  0.35118402  0.01956015  0.52685656    -0.78000
C221        C  0.35090624  0.00662992  0.50270087     0.82800
N222        N  0.35192247  0.02122710  0.47947101    -0.79700
O223        O  0.32816939  0.16748652  0.79822317    -0.86400
O224        O  0.32609952  0.32014031  0.79068958    -0.86600
O225        O  0.37127598  0.24412644  0.82824939    -0.88300
O226        O  0.28364035  0.24511989  0.82598437    -0.87000
O227        O  0.25106469  0.24414599  0.79313505    -0.86600
O228        O  0.40396766  0.24163833  0.79559069    -0.88000
O229        O  0.32668786  0.28872817  0.82479476    -0.86500
O230        O  0.32845552  0.20154472  0.82976564    -0.86100
Zr231      Zr  0.32797340  0.24375254  0.80498369     2.84300
O232        O  0.30118380  0.26994025  0.77643244    -1.08000
O233        O  0.35514128  0.21490133  0.77940654    -1.08800
C234        C  0.32819094  0.17649469  0.82273103     1.06700
C235        C  0.32553055  0.31316830  0.81577235     1.06600
C236        C  0.39604157  0.24321762  0.82036596     1.09600
C237        C  0.25886592  0.24543989  0.81797351     1.07400
H238        H  0.36679243  0.28125188  0.78817697     0.32900
O239        O  0.35571025  0.26964126  0.77710725    -1.29000
H240        H  0.28925227  0.20463021  0.79057049     0.32600
O241        O  0.30066339  0.21528636  0.77893635    -1.30700
O242        O  0.33202131  0.31541862  0.70333218    -0.86400
O243        O  0.32700770  0.16302478  0.70978966    -0.87900
O244        O  0.40476933  0.28458780  0.75036083    -0.86500
O245        O  0.25219495  0.28557321  0.74948391    -0.86600
O246        O  0.25186513  0.19802737  0.75148489    -0.86300
O247        O  0.40459591  0.19669756  0.75331062    -0.86100
O248        O  0.37290338  0.23740317  0.67504517    -0.86500
O249        O  0.28506500  0.24037366  0.67370726    -0.85900
O250        O  0.40571610  0.23856404  0.70779711    -0.87000
O251        O  0.25213958  0.24041748  0.70629703    -0.86100
O252        O  0.37239880  0.31778184  0.74979365    -0.86500
O253        O  0.37163388  0.16428761  0.75394123    -0.86300
O254        O  0.28393551  0.16487160  0.75310804    -0.85900
O255        O  0.28493783  0.31810608  0.74750525    -0.86300
O256        O  0.33271556  0.28137234  0.67208141    -0.86600
O257        O  0.32741513  0.19480193  0.67615350    -0.88000
Zr258      Zr  0.32871908  0.29570187  0.74827560     2.83100
Zr259      Zr  0.32790197  0.18684753  0.75294096     2.83500
Zr260      Zr  0.38269601  0.24070399  0.75126829     2.84100
Zr261      Zr  0.27419392  0.24170393  0.75006294     2.83400
Zr262      Zr  0.32876981  0.23917723  0.69647658     2.84200
O263        O  0.30108224  0.21302790  0.72419086    -1.08500
O264        O  0.35614051  0.26723185  0.72264966    -1.08000
C265        C  0.33372692  0.30647139  0.67890989     1.06600
C266        C  0.32685423  0.17025264  0.68469134     1.09300
C267        C  0.39703627  0.30948727  0.75017677     1.06800
C268        C  0.26009681  0.31039949  0.74859914     1.07200
C269        C  0.25921745  0.17306775  0.75232192     1.06700
C270        C  0.39657125  0.17191024  0.75404921     1.06300
C271        C  0.39772182  0.23773403  0.68295492     1.06700
C272        C  0.26026651  0.24060590  0.68158846     1.06200
H273        H  0.36671510  0.20074307  0.71404462     0.32900
O274        O  0.35557825  0.21256589  0.72477421    -1.29600
H275        H  0.29040848  0.27905807  0.70988145     0.32900
O276        O  0.30130925  0.26801939  0.72170293    -1.31000
C277        C  0.52255416  0.76553979  0.47778335     0.80300
N278        N  0.51076461  0.76474191  0.50241949    -0.78000
C279        C  0.52591067  0.76396055  0.52522404     0.82700
N280        N  0.55319399  0.76364511  0.52344025    -0.78000
C281        C  0.56527162  0.76458070  0.49884527     0.82800
N282        N  0.54988664  0.76526397  0.47608131    -0.79700
C283        C  0.34445508  0.93537254  0.52450982     0.80300
N284        N  0.34337495  0.92278821  0.50024366    -0.78000
C285        C  0.34485397  0.93676259  0.47680379     0.82700
N286        N  0.34735021  0.96405109  0.47762922    -0.78000
C287        C  0.34846406  0.97708109  0.50179431     0.82800
N288        N  0.34691080  0.96268140  0.52517215    -0.79700
C289        C  0.32948135  0.46009592  0.54946550     0.80300
N290        N  0.32914923  0.46154319  0.52210380    -0.78000
C291        C  0.32800703  0.48597186  0.50968596     0.82700
N292        N  0.32697963  0.50886129  0.52470691    -0.78000
C293        C  0.32677394  0.50758875  0.55205732     0.82800
N294        N  0.32805537  0.48308980  0.56426701    -0.79700
C295        C  0.13065600  0.46434933  0.76864081     0.80300
N296        N  0.10339851  0.46490597  0.77020749    -0.78000
C297        C  0.09000379  0.48883075  0.76961945     0.82700
N298        N  0.10406619  0.51225605  0.76683686    -0.78000
C299        C  0.13143622  0.51193045  0.76505849     0.82800
N300        N  0.14444817  0.48780925  0.76615731    -0.79700
O301        O  0.28520880  0.73567140  0.82285394    -0.86400
O302        O  0.28784181  0.73274328  0.66964653    -0.86600
O303        O  0.25281653  0.77849098  0.74729604    -0.88300
O304        O  0.25271726  0.69168616  0.74621380    -0.87000
O305        O  0.28541973  0.65889792  0.74858313    -0.86600
O306        O  0.28495481  0.81174177  0.74778665    -0.88000
O307        O  0.25473490  0.73382236  0.70202098    -0.86500
O308        O  0.25246029  0.73561187  0.79022786    -0.86100
Zr309      Zr  0.27544886  0.73505368  0.74656894     2.84300
O310        O  0.30319848  0.70776273  0.72002535    -1.08000
O311        O  0.30187450  0.76254966  0.77430283    -1.08800
C312        C  0.26041834  0.73611035  0.81512304     1.06700
C313        C  0.26302013  0.73260461  0.67735039     1.06600
C314        C  0.26023770  0.80342145  0.74825824     1.09600
C315        C  0.26066397  0.66696481  0.74766944     1.07400
H316        H  0.29155096  0.77327394  0.70750304     0.32900
O317        O  0.30266260  0.76216823  0.71905833    -1.29000
H318        H  0.29055914  0.69667122  0.78590729     0.32600
O319        O  0.30190646  0.70778679  0.77465252    -1.30700
O320        O  0.37541293  0.73534274  0.67192915    -0.86400
O321        O  0.37246329  0.73521867  0.82481807    -0.87900
O322        O  0.33040440  0.81175015  0.70319918    -0.86500
O323        O  0.32850492  0.65833649  0.70443868    -0.86600
O324        O  0.32983907  0.65851342  0.79203291    -0.86300
O325        O  0.32917986  0.81143400  0.79104357    -0.86100
O326        O  0.40595173  0.77937069  0.74963705    -0.86500
O327        O  0.40559477  0.69097778  0.75256545    -0.85900
O328        O  0.37285478  0.81185804  0.74930188    -0.87000
O329        O  0.37298746  0.65814581  0.75112329    -0.86100
O330        O  0.33236901  0.77866138  0.67066418    -0.86500
O331        O  0.32953095  0.77882515  0.82393688    -0.86300
O332        O  0.32903707  0.69172337  0.82430120    -0.85900
O333        O  0.33005684  0.69036192  0.67098089    -0.86300
O334        O  0.40766735  0.73596078  0.70513129    -0.86600
O335        O  0.40563398  0.73706083  0.79255981    -0.88000
Zr336      Zr  0.33100193  0.73458868  0.69293362     2.83100
Zr337      Zr  0.32910688  0.73525309  0.80162918     2.83500
Zr338      Zr  0.32911946  0.78957588  0.74702218     2.84100
Zr339      Zr  0.32964442  0.68065864  0.74804040     2.83400
Zr340      Zr  0.38417821  0.73522637  0.74832212     2.84200
O341        O  0.35679143  0.70795909  0.77529670    -1.08500
O342        O  0.35729649  0.76240404  0.72052603    -1.08000
C343        C  0.40012842  0.73597459  0.68013089     1.06600
C344        C  0.39730066  0.73647789  0.81723518     1.09300
C345        C  0.33180745  0.80355953  0.67849711     1.06800
C346        C  0.32840984  0.66571949  0.67946643     1.07200
C347        C  0.32960435  0.66678441  0.81676365     1.06700
C348        C  0.32987202  0.80357570  0.81591923     1.06300
C349        C  0.39768654  0.80408777  0.75043479     1.06700
C350        C  0.39765299  0.66609642  0.75315575     1.06200
H351        H  0.36725862  0.77385463  0.78620101     0.32900
O352        O  0.35625044  0.76251334  0.77464530    -1.29600
H353        H  0.36927745  0.69575571  0.70985666     0.32900
O354        O  0.35783258  0.70719535  0.72069402    -1.31000
C355        C  0.83657183  0.51060771  0.44622748     0.80300
N356        N  0.83752140  0.48673919  0.43286465    -0.78000
C357        C  0.83920084  0.46300509  0.44630398     0.82700
N358        N  0.83954256  0.46298668  0.47372726    -0.78000
C359        C  0.83883322  0.48678475  0.48743752     0.82800
N360        N  0.83727846  0.51043766  0.47361953    -0.79700
C361        C  0.02650486  0.51320606  0.27528085     0.80300
N362        N  0.05385722  0.51330826  0.27357310    -0.78000
C363        C  0.06761755  0.48966208  0.27092532     0.82700
N364        N  0.05384373  0.46589970  0.26960467    -0.78000
C365        C  0.02649483  0.46567311  0.27083329     0.82800
N366        N  0.01316877  0.48942133  0.27336036    -0.79700
C367        C  0.60330299  0.54226518  0.22914826     0.80300
N368        N  0.60183156  0.51503520  0.22656798    -0.78000
C369        C  0.57748480  0.50250807  0.22533905     0.82700
N370        N  0.55449446  0.51741936  0.22683469    -0.78000
C371        C  0.55564917  0.54472110  0.22965061     0.82800
N372        N  0.58018978  0.55680511  0.23080603    -0.79700
C373        C  0.60394019  0.72338340  0.05461312     0.80300
N374        N  0.58015956  0.72429604  0.06807109    -0.78000
C375        C  0.55644833  0.72650452  0.05453621     0.82700
N376        N  0.55659088  0.72739062  0.02714244    -0.78000
C377        C  0.58027733  0.72705277  0.01343554     0.82800
N378        N  0.60391477  0.72525878  0.02723191    -0.79700
O379        O  0.82882480  0.81349602  0.20706319    -0.86400
O380        O  0.83199756  0.66023490  0.20496869    -0.86600
O381        O  0.87483611  0.74022100  0.17516237    -0.88300
O382        O  0.78807390  0.73336628  0.17149080    -0.87000
O383        O  0.75441631  0.73252567  0.20321178    -0.86600
O384        O  0.90682202  0.73974361  0.20875284    -0.88000
O385        O  0.83276084  0.69386273  0.17303925    -0.86500
O386        O  0.82932381  0.78115396  0.17381043    -0.86100
Zr387      Zr  0.83063447  0.73703846  0.19572902     2.84300
O388        O  0.80365170  0.70856351  0.22171772    -1.08000
O389        O  0.85623752  0.76473048  0.22388455    -1.08800
C390        C  0.82925287  0.80585483  0.18219034     1.06700
C391        C  0.83282903  0.66889867  0.18030463     1.06600
C392        C  0.89936241  0.74119834  0.18378849     1.09600
C393        C  0.76314260  0.73178390  0.17866652     1.07400
H394        H  0.87005173  0.69911709  0.21233343     0.32900
O395        O  0.85803994  0.70987230  0.22324595    -1.29000
H396        H  0.79029428  0.77420331  0.21013944     0.32600
O397        O  0.80154814  0.76333413  0.22178368    -1.30700
O398        O  0.83184058  0.66035087  0.29415329    -0.86400
O399        O  0.82358649  0.81271997  0.29411591    -0.87900
O400        O  0.90665854  0.69484147  0.25528770    -0.86500
O401        O  0.75468277  0.68973635  0.24585373    -0.86600
O402        O  0.75096722  0.77783263  0.24701937    -0.86300
O403        O  0.90394081  0.78233106  0.25056244    -0.86100
O404        O  0.87016655  0.73913427  0.32820705    -0.86500
O405        O  0.78299369  0.73716909  0.32437084    -0.85900
O406        O  0.90369501  0.74025056  0.29634912    -0.87000
O407        O  0.75104620  0.73660591  0.29084098    -0.86100
O408        O  0.87504961  0.66110477  0.25264263    -0.86500
O409        O  0.87056185  0.81448179  0.25104604    -0.86300
O410        O  0.78291806  0.81136524  0.24922400    -0.85900
O411        O  0.78790018  0.65750285  0.24707018    -0.86300
O412        O  0.82930418  0.69306227  0.32698299    -0.86600
O413        O  0.82236380  0.77961682  0.32652604    -0.88000
Zr414      Zr  0.83061744  0.68173675  0.24962762     2.83100
Zr415      Zr  0.82742421  0.79083770  0.25034399     2.83500
Zr416      Zr  0.88319663  0.73795474  0.25178450     2.84100
Zr417      Zr  0.77472949  0.73465393  0.24797233     2.83400
Zr418      Zr  0.82735322  0.73627207  0.30412655     2.84200
O419        O  0.80023192  0.76254337  0.27613593    -1.08500
O420        O  0.85602596  0.70977735  0.27786436    -1.08000
C421        C  0.83151693  0.66839163  0.31901449     1.06600
C422        C  0.82148231  0.80444082  0.31873357     1.09300
C423        C  0.89947402  0.66977826  0.25528283     1.06800
C424        C  0.76305176  0.66504924  0.24517852     1.07200
C425        C  0.75834315  0.80284131  0.24820578     1.06700
C426        C  0.89546367  0.80695225  0.25027107     1.06300
C427        C  0.89510307  0.74057726  0.32093399     1.06700
C428        C  0.75846569  0.73770988  0.31582306     1.06200
H429        H  0.86520843  0.77646483  0.29006337     0.32900
O430        O  0.85483842  0.76471408  0.27846421    -1.29600
H431        H  0.79025439  0.69624296  0.28731961     0.32900
O432        O  0.80149960  0.70779385  0.27638526    -1.31000
C433        C  0.63764369  0.76597184  0.51783970     0.80300
N434        N  0.61028017  0.76523991  0.51954971    -0.78000
C435        C  0.59480561  0.76501424  0.49682881     0.82700
N436        N  0.60677770  0.76533622  0.47218945    -0.78000
C437        C  0.63401426  0.76630460  0.47030332     0.82800
N438        N  0.64922614  0.76629460  0.49307621    -0.79700
C439        C  0.82015193  0.93426459  0.52190333     0.80300
N440        N  0.81990638  0.96161482  0.52100640    -0.78000
C441        C  0.82063382  0.97454479  0.49682248     0.82700
N442        N  0.82192038  0.96001543  0.47354338    -0.78000
C443        C  0.82254938  0.93263204  0.47447673     0.82800
N444        N  0.82129882  0.92002268  0.49865325    -0.79700
C445        C  0.60610801  0.54303139  0.75958984     0.80300
N446        N  0.58266757  0.55702844  0.76048671    -0.78000
C447        C  0.55861048  0.54421401  0.76197244     0.82700
N448        N  0.55812398  0.51678354  0.76288577    -0.78000
C449        C  0.58154759  0.50245347  0.76194718     0.82800
N450        N  0.60548029  0.51566061  0.76017784    -0.79700
C451        C  0.55609951  0.73001831  0.94278959     0.80300
N452        N  0.55663033  0.72741527  0.97006415    -0.78000
C453        C  0.58023222  0.72927356  0.98388663     0.82700
N454        N  0.60354675  0.73398815  0.97031616    -0.78000
C455        C  0.60321963  0.73702324  0.94304468     0.82800
N456        N  0.57954790  0.73455552  0.92946607    -0.79700
C457        C  0.84177675  0.46393870  0.55842050     0.80300
N458        N  0.83974726  0.46361037  0.53110616    -0.78000
C459        C  0.84039898  0.48711048  0.51701763     0.82700
N460        N  0.84281906  0.51095106  0.53042135    -0.78000
C461        C  0.84487759  0.51138993  0.55779628     0.82800
N462        N  0.84405415  0.48778875  0.57160421    -0.79700
C463        C  0.01878551  0.51214108  0.77260556     0.80300
N464        N  0.04627222  0.51234589  0.77289151    -0.78000
C465        C  0.06036283  0.48889271  0.77017944     0.82700
N466        N  0.04691720  0.46524483  0.76671030    -0.78000
C467        C  0.01963335  0.46489206  0.76564818     0.82800
N468        N  0.00586194  0.48828259  0.76888103    -0.79700
O469        O  0.87285948  0.73955605  0.82456608    -0.86400
O470        O  0.87216511  0.74154533  0.67085295    -0.86600
O471        O  0.90612069  0.69835841  0.75171683    -0.88300
O472        O  0.90414933  0.78598318  0.74874237    -0.87000
O473        O  0.87077646  0.81809331  0.74868715    -0.86600
O474        O  0.87384409  0.66503914  0.75051818    -0.88000
O475        O  0.90475755  0.74065223  0.70392383    -0.86500
O476        O  0.90558231  0.74128201  0.79204389    -0.86100
Zr477      Zr  0.88312549  0.74160279  0.74805743     2.84300
O478        O  0.85578709  0.76861150  0.72047449    -1.08000
O479        O  0.85632037  0.71332590  0.77448320    -1.08800
C480        C  0.89774822  0.74031030  0.81689469     1.06700
C481        C  0.89683984  0.74034820  0.67903291     1.06600
C482        C  0.89840420  0.67349160  0.75259382     1.09600
C483        C  0.89564297  0.81060968  0.74943176     1.07400
H484        H  0.86822325  0.70303454  0.70915816     0.32900
O485        O  0.85661687  0.71409837  0.72018732    -1.29000
H486        H  0.86656510  0.77959722  0.78721270     0.32600
O487        O  0.85572367  0.76820755  0.77568025    -1.30700
O488        O  0.78446821  0.74109442  0.67125741    -0.86400
O489        O  0.78564194  0.74080995  0.82480986    -0.87900
O490        O  0.83230967  0.66492650  0.70236087    -0.86500
O491        O  0.82651829  0.81773529  0.70484409    -0.86600
O492        O  0.82466561  0.81604803  0.79199213    -0.86300
O493        O  0.82773015  0.66265341  0.78939151    -0.86100
O494        O  0.75292187  0.69576895  0.74737852    -0.86500
O495        O  0.75150241  0.78288893  0.74806714    -0.85900
O496        O  0.78601058  0.66340677  0.74531646    -0.87000
O497        O  0.78377387  0.81602364  0.74769254    -0.86100
O498        O  0.83071603  0.69793407  0.66983081    -0.86500
O499        O  0.82880479  0.69496351  0.82271159    -0.86300
O500        O  0.82614627  0.78325173  0.82466246    -0.85900
O501        O  0.82728593  0.78520215  0.67179352    -0.86300
O502        O  0.75173554  0.74193259  0.70395911    -0.86600
O503        O  0.75300182  0.74119727  0.79192874    -0.88000
Zr504      Zr  0.82865486  0.74104418  0.69319151     2.83100
Zr505      Zr  0.82897854  0.73971102  0.80210572     2.83500
Zr506      Zr  0.82952528  0.68619111  0.74660529     2.84100
Zr507      Zr  0.82788350  0.79466267  0.74809711     2.83400
Zr508      Zr  0.77447071  0.73969231  0.74760043     2.84200
O509        O  0.80134462  0.76681910  0.77513427    -1.08500
O510        O  0.80146706  0.71286998  0.71953753    -1.08000
C511        C  0.75967367  0.74239344  0.67914522     1.06600
C512        C  0.76089675  0.74166257  0.81684200     1.09300
C513        C  0.83265057  0.67314680  0.67760030     1.06800
C514        C  0.82580675  0.80989354  0.68001576     1.07200
C515        C  0.82414282  0.80800966  0.81673951     1.06700
C516        C  0.82774957  0.67030082  0.81425862     1.06300
C517        C  0.76116590  0.67110524  0.74626939     1.06700
C518        C  0.75909331  0.80776642  0.74783434     1.06200
H519        H  0.79066237  0.70101171  0.78562132     0.32900
O520        O  0.80190777  0.71242341  0.77455475    -1.29600
H521        H  0.78964552  0.77878953  0.70949220     0.32900
O522        O  0.80106970  0.76752912  0.72055869    -1.31000
C523        C  0.55086097  0.43269897  0.21997113     0.80300
N524        N  0.55195500  0.46006957  0.22184925    -0.78000
C525        C  0.57617915  0.47289458  0.22314428     0.82700
N526        N  0.59931176  0.45816190  0.22294135    -0.78000
C527        C  0.59831211  0.43080693  0.22131225     0.82800
N528        N  0.57407517  0.41824401  0.22015512    -0.79700
C529        C  0.60318721  0.24498981  0.05444941     0.80300
N530        N  0.57965930  0.24425927  0.06829945    -0.78000
C531        C  0.55599714  0.24026781  0.05513359     0.82700
N532        N  0.55590183  0.23718045  0.02788632    -0.78000
C533        C  0.57948988  0.23742688  0.01397655     0.82800
N534        N  0.60306089  0.24112435  0.02734918    -0.79700
O535        O  0.87544043  0.24454790  0.17338289    -0.86400
O536        O  0.86893163  0.23714056  0.32640275    -0.86600
O537        O  0.90402773  0.28651184  0.25398754    -0.88300
O538        O  0.90598550  0.19896370  0.25090032    -0.87000
O539        O  0.87403481  0.16551484  0.24780625    -0.86600
O540        O  0.87068459  0.31868118  0.25353784    -0.88000
O541        O  0.90282706  0.24049203  0.29511449    -0.86500
O542        O  0.90686764  0.24570124  0.20744662    -0.86100
Zr543      Zr  0.88288531  0.24226940  0.25011941     2.84300
O544        O  0.85532660  0.21336054  0.27509575    -1.08000
O545        O  0.85639030  0.26969249  0.22230088    -1.08800
C546        C  0.89981107  0.24572414  0.18233468     1.06700
C547        C  0.89400515  0.23827521  0.31954784     1.06600
C548        C  0.89558498  0.31113859  0.25527160     1.09600
C549        C  0.89854954  0.17400586  0.24990319     1.07400
H550        H  0.86450653  0.27901167  0.28911030     0.32900
O551        O  0.85402377  0.26807261  0.27683127    -1.29000
H552        H  0.86994940  0.20430229  0.20944383     0.32600
O553        O  0.85798181  0.21495261  0.22050890    -1.30700
O554        O  0.78187015  0.23990117  0.32182945    -0.86400
O555        O  0.78857570  0.24117979  0.16853796    -0.87900
O556        O  0.82436139  0.31620836  0.29342533    -0.86500
O557        O  0.82699186  0.16269709  0.28828978    -0.86600
O558        O  0.83177319  0.16571604  0.20130234    -0.86300
O559        O  0.83165554  0.31880320  0.20600345    -0.86100
O560        O  0.75131196  0.28328375  0.24136230    -0.86500
O561        O  0.75291504  0.19576064  0.24147736    -0.85900
O562        O  0.78313002  0.31679941  0.24451849    -0.87000
O563        O  0.78652799  0.16398803  0.24059558    -0.86100
O564        O  0.82586928  0.28237729  0.32508329    -0.86500
O565        O  0.83189135  0.28686598  0.17243572    -0.86300
O566        O  0.83157794  0.19940825  0.16949334    -0.85900
O567        O  0.82490451  0.19451083  0.32197416    -0.86300
O568        O  0.75004784  0.23992764  0.28814021    -0.86600
O569        O  0.75481047  0.23838660  0.20007112    -0.88000
Zr570      Zr  0.82635264  0.23921023  0.30165364     2.83100
Zr571      Zr  0.83096920  0.24245680  0.19325786     2.83500
Zr572      Zr  0.82737119  0.29548996  0.24900659     2.84100
Zr573      Zr  0.82982127  0.18667540  0.24566720     2.83400
Zr574      Zr  0.77424314  0.23996237  0.24509630     2.84200
O575        O  0.80311306  0.21409364  0.21832688    -1.08500
O576        O  0.79950053  0.26708149  0.27443069    -1.08000
C577        C  0.75732577  0.24029932  0.31324916     1.06600
C578        C  0.76364759  0.23906703  0.17559223     1.09300
C579        C  0.82523037  0.30743813  0.31797587     1.06800
C580        C  0.82489852  0.16995119  0.31321180     1.07200
C581        C  0.83155483  0.17437528  0.17671360     1.06700
C582        C  0.83280379  0.31145828  0.18101352     1.06300
C583        C  0.75866179  0.30831346  0.24152195     1.06700
C584        C  0.76156548  0.17124814  0.23942115     1.06200
H585        H  0.79126828  0.27961939  0.20775118     0.32900
O586        O  0.80197840  0.26848165  0.21963996    -1.29600
H587        H  0.78893980  0.20045773  0.28292794     0.32900
O588        O  0.80061820  0.21217818  0.27266026    -1.31000
C589        C  0.55598023  0.43245650  0.76299933     0.80300
N590        N  0.57931112  0.41826363  0.76190692    -0.78000
C591        C  0.60359870  0.43083188  0.76074315     0.82700
N592        N  0.60417183  0.45829509  0.76075199    -0.78000
C593        C  0.58092448  0.47281195  0.76206446     0.82800
N594        N  0.55692596  0.45978336  0.76318550    -0.79700
C595        C  0.55579997  0.22920523  0.94378020     0.80300
N596        N  0.55605408  0.23243702  0.97094487    -0.78000
C597        C  0.57962775  0.23318140  0.98472715     0.82700
N598        N  0.60326206  0.23041805  0.97124216    -0.78000
C599        C  0.60336044  0.22686066  0.94404970     0.82800
N600        N  0.57953620  0.22620198  0.93049357    -0.79700
C601        C  0.63454737  0.23202425  0.52101336     0.80300
N602        N  0.64732151  0.23077006  0.49682082    -0.78000
C603        C  0.63325262  0.22900590  0.47330583     0.82700
N604        N  0.60591036  0.22818995  0.47426236    -0.78000
C605        C  0.59276699  0.22922886  0.49830353     0.82800
N606        N  0.60717044  0.23101713  0.52167542    -0.79700
C607        C  0.82076671  0.04422976  0.47055243     0.80300
N608        N  0.82161134  0.01692072  0.47172616    -0.78000
C609        C  0.81993351  0.00404790  0.49583858     0.82700
N610        N  0.81749964  0.01861157  0.51895822    -0.78000
C611        C  0.81652237  0.04600317  0.51803002     0.82800
N612        N  0.81844685  0.05854359  0.49379172    -0.79700
O613        O  0.87376041  0.23524053  0.82573722    -0.86400
O614        O  0.87230205  0.23828415  0.67254172    -0.86600
O615        O  0.90448763  0.19032106  0.75014443    -0.88300
O616        O  0.90670552  0.27804739  0.75003919    -0.87000
O617        O  0.87422926  0.31094666  0.75183245    -0.86600
O618        O  0.87148106  0.15771328  0.75025886    -0.88000
O619        O  0.90524051  0.23612831  0.70520760    -0.86500
O620        O  0.90636609  0.23559850  0.79284030    -0.86100
Zr621      Zr  0.88354717  0.23464818  0.74918300     2.84300
O622        O  0.85673141  0.26270280  0.72230403    -1.08000
O623        O  0.85639791  0.20715854  0.77621816    -1.08800
C624        C  0.89845512  0.23630214  0.81766792     1.06700
C625        C  0.89708978  0.23774124  0.68047474     1.06600
C626        C  0.89623078  0.16562827  0.75085264     1.09600
C627        C  0.89900054  0.30289777  0.75147044     1.07400
H628        H  0.86714435  0.19667777  0.70992599     0.32900
O629        O  0.85609710  0.20790334  0.72137218    -1.29000
H630        H  0.86832919  0.27287553  0.78854471     0.32600
O631        O  0.85707557  0.26174664  0.77717625    -1.30700
O632        O  0.78459066  0.23506665  0.67323374    -0.86400
O633        O  0.78668198  0.23227902  0.82704551    -0.87900
O634        O  0.82699738  0.15918704  0.70455772    -0.86500
O635        O  0.82967017  0.31200279  0.70705245    -0.86600
O636        O  0.82958131  0.31139553  0.79409517    -0.86300
O637        O  0.82781491  0.15803601  0.79214701    -0.86100
O638        O  0.75178012  0.19294378  0.74605065    -0.86500
O639        O  0.75377280  0.28005369  0.75269874    -0.85900
O640        O  0.78405366  0.15987105  0.74568602    -0.87000
O641        O  0.78687462  0.31254965  0.75225256    -0.86100
O642        O  0.82776957  0.19247350  0.67227315    -0.86500
O643        O  0.83079526  0.19024409  0.82541639    -0.86300
O644        O  0.82878161  0.27827571  0.82652779    -0.85900
O645        O  0.82752142  0.28037355  0.67334526    -0.86300
O646        O  0.75208517  0.23712497  0.70611915    -0.86600
O647        O  0.75393805  0.23329934  0.79424385    -0.88000
Zr648      Zr  0.82875345  0.23616398  0.69496268     2.83100
Zr649      Zr  0.82975444  0.23435339  0.80398203     2.83500
Zr650      Zr  0.82841849  0.18090357  0.74860453     2.84100
Zr651      Zr  0.83002404  0.28940408  0.75040869     2.83400
Zr652      Zr  0.77495508  0.23594877  0.74987230     2.84200
O653        O  0.80253159  0.26241311  0.77755981    -1.08500
O654        O  0.80155194  0.20897040  0.72202607    -1.08000
C655        C  0.75984399  0.23599102  0.68124145     1.06600
C656        C  0.76192894  0.23187194  0.81907490     1.09300
C657        C  0.82664512  0.16753742  0.67987218     1.06800
C658        C  0.82807945  0.30496385  0.68205657     1.07200
C659        C  0.82905183  0.30322540  0.81880596     1.06700
C660        C  0.82917349  0.16562124  0.81707318     1.06300
C661        C  0.75936266  0.16810557  0.74447257     1.06700
C662        C  0.76210897  0.30470987  0.75316860     1.06200
H663        H  0.79049057  0.19611459  0.78750488     0.32900
O664        O  0.80174588  0.20768364  0.77661879    -1.29600
H665        H  0.79063231  0.27496949  0.71185951     0.32900
O666        O  0.80196606  0.26339273  0.72270893    -1.31000
O667        O  0.28395606  0.23440087  0.17090881    -0.86400
O668        O  0.28393586  0.23784889  0.32389555    -0.86600
O669        O  0.25303036  0.19115248  0.24809259    -0.88300
O670        O  0.25061683  0.27854900  0.24717985    -0.87000
O671        O  0.28247649  0.31200885  0.24531036    -0.86600
O672        O  0.28599847  0.15880512  0.24887260    -0.88000
O673        O  0.25185170  0.23691217  0.29060610    -0.86500
O674        O  0.25129503  0.23480637  0.20374635    -0.86100
Zr675      Zr  0.27407214  0.23530505  0.24715417     2.84300
O676        O  0.30056478  0.26397754  0.27340035    -1.08000
O677        O  0.30128721  0.20756820  0.22039993    -1.08800
C678        C  0.25924014  0.23479971  0.17896962     1.06700
C679        C  0.25920156  0.23745414  0.31556105     1.06600
C680        C  0.26109888  0.16639546  0.24864606     1.09600
C681        C  0.25788006  0.30357478  0.24666627     1.07400
H682        H  0.29046586  0.19797636  0.28703009     0.32900
O683        O  0.30141753  0.20919468  0.27547663    -1.29000
H684        H  0.28840502  0.27289970  0.20766947     0.32600
O685        O  0.30019945  0.26228672  0.21897678    -1.30700
O686        O  0.37207418  0.24036076  0.32384222    -0.86400
O687        O  0.37140746  0.23789245  0.16997422    -0.87900
O688        O  0.33121203  0.16110303  0.29320974    -0.86500
O689        O  0.32468692  0.31399420  0.28831875    -0.86600
O690        O  0.32324161  0.31176422  0.20039568    -0.86300
O691        O  0.33035267  0.15874496  0.20534490    -0.86100
O692        O  0.40590250  0.19508836  0.24874934    -0.86500
O693        O  0.40342715  0.28244504  0.24491033    -0.85900
O694        O  0.37385546  0.16160264  0.24923852    -0.87000
O695        O  0.37000304  0.31432869  0.24186490    -0.86100
O696        O  0.33042061  0.19466128  0.32508388    -0.86500
O697        O  0.32952848  0.19048063  0.17162257    -0.86300
O698        O  0.32414600  0.27774636  0.16910106    -0.85900
O699        O  0.32434256  0.28249347  0.32237074    -0.86300
O700        O  0.40482247  0.23968648  0.29112296    -0.86600
O701        O  0.40366800  0.23925516  0.20320010    -0.88000
Zr702      Zr  0.32802000  0.23810346  0.30176685     2.83100
Zr703      Zr  0.32797993  0.23486461  0.19266317     2.83500
Zr704      Zr  0.32932938  0.18215225  0.24869593     2.84100
Zr705      Zr  0.32682298  0.29101497  0.24505812     2.83400
Zr706      Zr  0.38225073  0.23815460  0.24736520     2.84200
O707        O  0.35471579  0.26373238  0.21878401    -1.08500
O708        O  0.35584141  0.21083775  0.27527852    -1.08000
C709        C  0.39689805  0.24055355  0.31593802     1.06600
C710        C  0.39605363  0.23960646  0.17825647     1.09300
C711        C  0.33174216  0.16958494  0.31787404     1.06800
C712        C  0.32319667  0.30693662  0.31336849     1.07200
C713        C  0.32243265  0.30283070  0.17585243     1.06700
C714        C  0.33027622  0.16588058  0.18024576     1.06300
C715        C  0.39844299  0.17011078  0.24903803     1.06700
C716        C  0.39496761  0.30696728  0.24245498     1.06200
H717        H  0.36768550  0.19808412  0.20971435     0.32900
O718        O  0.35605824  0.20920131  0.22067972    -1.29600
H719        H  0.36551594  0.27772439  0.28473578     0.32900
O720        O  0.35462528  0.26571681  0.27388934    -1.31000
C721        C  0.80297539  0.10883123  0.63647729    -0.22400
C722        C  0.82100700  0.11065798  0.61484179     0.09500
C723        C  0.84143214  0.13046912  0.61509005     0.10000
C724        C  0.84302223  0.14852405  0.63681078    -0.17300
C725        C  0.82484599  0.14698464  0.65839834    -0.27800
C726        C  0.80464086  0.12678014  0.65837287     0.18300
C727        C  0.81746103  0.09265520  0.59130984     0.12300
C728        C  0.86149817  0.13254094  0.59238773    -0.12100
H729        H  0.85850048  0.16397836  0.63695007     0.12500
C730        C  0.78406579  0.12484619  0.68066593    -0.22900
H731        H  0.78727334  0.09362346  0.63593932     0.08200
C732        C  0.82840678  0.06644752  0.59076974     0.04500
C733        C  0.82702614  0.05139279  0.56681092    -0.20200
C734        C  0.81507195  0.06204912  0.54331975    -0.12500
C735        C  0.80277776  0.08792162  0.54449485     0.13200
C736        C  0.80417502  0.10280851  0.56854032    -0.22900
C737        C  0.84206536  0.05468870  0.61527163    -0.06000
H738        H  0.83616178  0.03153634  0.56622483     0.14800
C739        C  0.78777600  0.10001462  0.52087902    -0.16100
H740        H  0.79547901  0.12286666  0.56944125     0.09100
H741        H  0.79413354  0.11995941  0.70008492     0.06900
H742        H  0.76897200  0.10877357  0.67663377     0.08100
H743        H  0.77312792  0.14430464  0.68259837     0.07200
H744        H  0.85088926  0.13691487  0.57312442     0.02100
H745        H  0.87264211  0.11321031  0.59043450     0.02500
H746        H  0.87639745  0.14889448  0.59597698     0.06000
H747        H  0.84973018  0.03399306  0.61136948     0.05000
H748        H  0.82753330  0.05360509  0.63224616    -0.00700
H749        H  0.85936782  0.06759427  0.62125634     0.00700
H750        H  0.77218728  0.08566445  0.51357981     0.04400
H751        H  0.80195412  0.10497121  0.50432649     0.06300
H752        H  0.77742687  0.11907574  0.52650882     0.07200
C753        C  0.68892542  0.25091565  0.57217879    -0.22400
C754        C  0.68231069  0.23409114  0.59388061     0.09500
C755        C  0.65871299  0.21823046  0.59257447     0.10000
C756        C  0.64305540  0.21843243  0.56882020    -0.17300
C757        C  0.65049382  0.23417199  0.54639080    -0.27800
C758        C  0.67327994  0.25133698  0.54852466     0.18300
C759        C  0.70095345  0.23319095  0.61736410     0.12300
C760        C  0.65005952  0.20124870  0.61625210    -0.12100
H761        H  0.62530115  0.20574852  0.56752428     0.12500
C762        C  0.68082212  0.27082671  0.52639434    -0.22900
H763        H  0.70672290  0.26353090  0.57366267     0.08200
C764        C  0.72169127  0.21373294  0.61894581     0.04500
C765        C  0.74020053  0.21482151  0.64040225    -0.20200
C766        C  0.73883896  0.23524118  0.66000487    -0.12500
C767        C  0.71843540  0.25508610  0.65809796     0.13200
C768        C  0.69954903  0.25364502  0.63690795    -0.22900
C769        C  0.72490707  0.19242746  0.59746386    -0.06000
H770        H  0.75609349  0.19985750  0.64170512     0.14800
C771        C  0.71753648  0.27865801  0.67733121    -0.16100
H772        H  0.68406894  0.26896870  0.63508671     0.09100
H773        H  0.68748721  0.25971977  0.50816252     0.06900
H774        H  0.69766597  0.28425202  0.53259672     0.08100
H775        H  0.66327267  0.28379766  0.52134739     0.07200
H776        H  0.64682406  0.21438142  0.63412016     0.02100
H777        H  0.66578214  0.18611090  0.62115398     0.02500
H778        H  0.63098225  0.19030025  0.61200261     0.06000
H779        H  0.74247292  0.17913869  0.60155792     0.05000
H780        H  0.72802884  0.20220196  0.57753703    -0.00700
H781        H  0.70664073  0.17957368  0.59647876     0.00700
H782        H  0.70119325  0.29304539  0.67204650     0.04400
H783        H  0.73696440  0.28977143  0.67659606     0.06300
H784        H  0.71392262  0.27146361  0.69822383     0.07200
C785        C  0.67461850  0.23878371  0.91801936    -0.22400
C786        C  0.67440898  0.22275151  0.89477640     0.09500
C787        C  0.65192969  0.20635849  0.88900332     0.10000
C788        C  0.62937683  0.20753337  0.90596905    -0.17300
C789        C  0.62896815  0.22441298  0.92882061    -0.27800
C790        C  0.65225325  0.23977391  0.93527648     0.18300
C791        C  0.69705326  0.22523610  0.87566014     0.12300
C792        C  0.65169551  0.18789254  0.86481361    -0.12100
H793        H  0.61181103  0.19542391  0.90116640     0.12500
C794        C  0.65342257  0.25824739  0.95944190    -0.22900
H795        H  0.69212617  0.25121394  0.92218423     0.08200
C796        C  0.69592790  0.24393037  0.85422005     0.04500
C797        C  0.71764398  0.24578436  0.83640015    -0.20200
C798        C  0.74068826  0.22975996  0.83975390    -0.12500
C799        C  0.74210079  0.21136803  0.86166318     0.13200
C800        C  0.72008146  0.20929099  0.87933909    -0.22900
C801        C  0.67187557  0.26207174  0.85022604    -0.06000
H802        H  0.71667875  0.25994352  0.81972877     0.14800
C803        C  0.76619014  0.19330412  0.86603220    -0.16100
H804        H  0.72072482  0.19514536  0.89603304     0.09100
H805        H  0.67266143  0.26968258  0.96032735     0.06900
H806        H  0.65196008  0.24626038  0.97831470     0.08100
H807        H  0.63672124  0.27311935  0.95846792     0.07200
H808        H  0.66852538  0.17321960  0.86645379     0.02100
H809        H  0.65411557  0.19978178  0.84598514     0.02500
H810        H  0.63255266  0.17636487  0.86329799     0.06000
H811        H  0.67446758  0.27565468  0.83256585     0.05000
H812        H  0.66898342  0.27482271  0.86842106    -0.00700
H813        H  0.65350573  0.24976495  0.84680775     0.00700
H814        H  0.78427972  0.20566128  0.87062535     0.04400
H815        H  0.76989451  0.18098406  0.84767987     0.06300
H816        H  0.76311173  0.17926763  0.88325213     0.07200
C817        C  0.67753505  0.40740660  0.75785401    -0.22400
C818        C  0.67406619  0.37949863  0.75581280     0.09500
C819        C  0.64797614  0.36847101  0.75565193     0.10000
C820        C  0.62572284  0.38577485  0.75708503    -0.17300
C821        C  0.62872954  0.41407144  0.75911272    -0.27800
C822        C  0.65532356  0.42490145  0.75974523     0.18300
C823        C  0.69805555  0.36194743  0.75487710     0.12300
C824        C  0.64365699  0.33836392  0.75419741    -0.12100
H825        H  0.60580905  0.37684851  0.75674160     0.12500
C826        C  0.66094054  0.45455793  0.76309633    -0.22900
H827        H  0.69784433  0.41546963  0.75829179     0.08200
C828        C  0.70969199  0.35412868  0.73012834     0.04500
C829        C  0.73124849  0.33590867  0.73029419    -0.20200
C830        C  0.74136037  0.32557277  0.75459949    -0.12500
C831        C  0.73003797  0.33374080  0.77943054     0.13200
C832        C  0.70847416  0.35196521  0.77923464    -0.22900
C833        C  0.69904089  0.36456786  0.70361204    -0.06000
H834        H  0.73971368  0.32906706  0.71136295     0.14800
C835        C  0.73979143  0.32325049  0.80632012    -0.16100
H836        H  0.69933884  0.35801631  0.79816224     0.09100
H837        H  0.65250377  0.46600149  0.74576733     0.06900
H838        H  0.68287796  0.45895371  0.76390511     0.08100
H839        H  0.65205580  0.46165081  0.78237728     0.07200
H840        H  0.65339127  0.32845298  0.77180574     0.02100
H841        H  0.65257521  0.33026052  0.73533393     0.02500
H842        H  0.62192397  0.33302824  0.75438409     0.06000
H843        H  0.71055192  0.35638289  0.68622395     0.05000
H844        H  0.70059462  0.38691598  0.70313850    -0.00700
H845        H  0.67762609  0.35861385  0.70110330     0.00700
H846        H  0.74603675  0.34046156  0.81925933     0.04400
H847        H  0.75718816  0.30933573  0.80451563     0.06300
H848        H  0.72317472  0.31227267  0.81652128     0.07200
C849        C  0.71855282  0.25481033  0.37770662    -0.22400
C850        C  0.69804500  0.23541966  0.37615877     0.09500
C851        C  0.69544302  0.21953889  0.35260774     0.10000
C852        C  0.71439712  0.22242370  0.33174231    -0.17300
C853        C  0.73603688  0.24055266  0.33411490    -0.27800
C854        C  0.73772682  0.25748979  0.35712230     0.18300
C855        C  0.68057074  0.23141951  0.40015508     0.12300
C856        C  0.67327866  0.19895996  0.34987271    -0.12100
H857        H  0.71298273  0.20965041  0.31401555     0.12500
C858        C  0.75943628  0.27865763  0.36004549    -0.22900
H859        H  0.72001615  0.26735399  0.39559330     0.08200
C860        C  0.69072252  0.21934433  0.42389936     0.04500
C861        C  0.67439073  0.21799254  0.44695103    -0.20200
C862        C  0.64808182  0.22859082  0.44710168    -0.12500
C863        C  0.63766538  0.24000226  0.42288848     0.13200
C864        C  0.65410739  0.24123201  0.39978462    -0.22900
C865        C  0.71890547  0.20800796  0.42500011    -0.06000
H866        H  0.68247308  0.20894736  0.46517841     0.14800
C867        C  0.60983406  0.25209387  0.42133519    -0.16100
H868        H  0.64656367  0.25060023  0.38148785     0.09100
H869        H  0.77947968  0.26899748  0.36216126     0.06900
H870        H  0.75630971  0.29136484  0.37825224     0.08100
H871        H  0.75936536  0.29215641  0.34213742     0.07200
H872        H  0.65338363  0.20913007  0.35073914     0.02100
H873        H  0.67474102  0.18401961  0.36652128     0.02500
H874        H  0.67450643  0.18790359  0.33039291     0.06000
H875        H  0.72329659  0.19841664  0.44479959     0.05000
H876        H  0.73386875  0.22435476  0.42191350    -0.00700
H877        H  0.72143095  0.19250254  0.40901291     0.00700
H878        H  0.60579355  0.26130704  0.40128133     0.04400
H879        H  0.60766175  0.26818204  0.43678923     0.06300
H880        H  0.59441854  0.23619208  0.42455560     0.07200
C881        C  0.80311430  0.12980615  0.37438419    -0.22400
C882        C  0.82204710  0.10888336  0.37402077     0.09500
C883        C  0.84028178  0.10663829  0.35239177     0.10000
C884        C  0.84022358  0.12651600  0.33224743    -0.17300
C885        C  0.82222898  0.14836414  0.33337249    -0.27800
C886        C  0.80265905  0.14943723  0.35411596     0.18300
C887        C  0.82380412  0.09116623  0.39784155     0.12300
C888        C  0.86023210  0.08378522  0.35107776    -0.12100
H889        H  0.85487151  0.12550733  0.31606799     0.12500
C890        C  0.78063571  0.17042868  0.35531706    -0.22900
H891        H  0.78882788  0.13102325  0.39088442     0.08200
C892        C  0.83607898  0.10046440  0.42175073     0.04500
C893        C  0.83530350  0.08427931  0.44483064    -0.20200
C894        C  0.82288240  0.05878869  0.44453006    -0.12500
C895        C  0.81179416  0.04887224  0.41999921     0.13200
C896        C  0.81217476  0.06543631  0.39697549    -0.22900
C897        C  0.84999848  0.12751566  0.42288340    -0.06000
H898        H  0.84434084  0.09172640  0.46333694     0.14800
C899        C  0.79875341  0.02144793  0.41796343    -0.16100
H900        H  0.80300802  0.05853021  0.37832012     0.09100
H901        H  0.76075967  0.16021645  0.35664379     0.06900
H902        H  0.77979663  0.18356987  0.33726697     0.08100
H903        H  0.78341814  0.18322784  0.37352081     0.07200
H904        H  0.84931704  0.06423784  0.35018999     0.02100
H905        H  0.87335483  0.08409151  0.36926261     0.02500
H906        H  0.87327167  0.08525800  0.33293881     0.06000
H907        H  0.85920497  0.13132628  0.44298807     0.05000
H908        H  0.83532944  0.14392044  0.41880084    -0.00700
H909        H  0.86625523  0.12824383  0.40752783     0.00700
H910        H  0.78212124  0.01978280  0.43282150     0.04400
H911        H  0.81394003  0.00544234  0.42176573     0.06300
H912        H  0.79015751  0.01778459  0.39755743     0.07200
C913        C  0.50334660  0.22224545  0.10754960    -0.22400
C914        C  0.48327543  0.24120145  0.10162205     0.09500
C915        C  0.48661496  0.25904948  0.07970718     0.10000
C916        C  0.51021536  0.25760652  0.06418441    -0.17300
C917        C  0.53065124  0.23906789  0.07050756    -0.27800
C918        C  0.52695757  0.22077946  0.09217696     0.18300
C919        C  0.45944987  0.24244491  0.11943316     0.12300
C920        C  0.46550583  0.27984612  0.07307510    -0.12100
H921        H  0.51312014  0.27155653  0.04757251     0.12500
C922        C  0.54701402  0.19902778  0.09929750    -0.22900
H923        H  0.50054373  0.20848157  0.12434995     0.08200
C924        C  0.43692704  0.22555558  0.11537745     0.04500
C925        C  0.41600209  0.22565835  0.13442361    -0.20200
C926        C  0.41743885  0.24195061  0.15762259    -0.12500
C927        C  0.43955851  0.25979025  0.16093235     0.13200
C928        C  0.46029981  0.25972170  0.14176567    -0.22900
C929        C  0.43529359  0.20713293  0.09123382    -0.06000
H930        H  0.39892331  0.21227683  0.13167662     0.14800
C931        C  0.44124129  0.27938856  0.18421999    -0.16100
H932        H  0.47760504  0.27281845  0.14446462     0.09100
H933        H  0.53686513  0.17905007  0.09868807     0.06900
H934        H  0.55486442  0.20251402  0.12002250     0.08100
H935        H  0.56427566  0.19801450  0.08521853     0.07200
H936        H  0.46278287  0.29363795  0.09052827     0.02100
H937        H  0.44606672  0.26971874  0.06854187     0.02500
H938        H  0.47124902  0.29217396  0.05525701     0.06000
H939        H  0.41624670  0.19535969  0.09100441     0.05000
H940        H  0.45238259  0.19268563  0.09158390    -0.00700
H941        H  0.43622606  0.21922016  0.07238243     0.00700
H942        H  0.44381534  0.26837071  0.20354817     0.04400
H943        H  0.42266512  0.29184950  0.18496706     0.06300
H944        H  0.45867142  0.29330348  0.18218694     0.07200
C945        C  0.70041763  0.22222294  0.13658636    -0.22400
C946        C  0.70025142  0.24305181  0.11747672     0.09500
C947        C  0.72219240  0.26104286  0.11587796     0.10000
C948        C  0.74355765  0.25833566  0.13425407    -0.17300
C949        C  0.74323851  0.23809644  0.15409090    -0.27800
C950        C  0.72194099  0.21910189  0.15456033     0.18300
C951        C  0.67679222  0.24529274  0.09932109     0.12300
C952        C  0.72290492  0.28311506  0.09497490    -0.12100
H953        H  0.76003256  0.27270646  0.13383384     0.12500
C954        C  0.72156812  0.19495168  0.17314382    -0.22900
H955        H  0.68368974  0.20814324  0.13730081     0.08200
C956        C  0.67281932  0.22676049  0.07809390     0.04500
C957        C  0.64897165  0.22793574  0.06303557    -0.20200
C958        C  0.62894212  0.24695596  0.06904006    -0.12500
C959        C  0.63353650  0.26643331  0.08940651     0.13200
C960        C  0.65748432  0.26527238  0.10443891    -0.22900
C961        C  0.69362354  0.20562409  0.07152246    -0.06000
H962        H  0.64549619  0.21325989  0.04716141     0.14800
C963        C  0.61365519  0.28875569  0.09490780    -0.16100
H964        H  0.66095417  0.27960765  0.12062566     0.09100
H965        H  0.71914489  0.17625184  0.16099860     0.06900
H966        H  0.70438405  0.19660768  0.18735757     0.08100
H967        H  0.74041685  0.19261867  0.18491095     0.07200
H968        H  0.70572951  0.29711223  0.09803684     0.02100
H969        H  0.72153190  0.27415152  0.07446470     0.02500
H970        H  0.74182088  0.29504475  0.09619143     0.06000
H971        H  0.68759862  0.19326359  0.05379623     0.05000
H972        H  0.69635529  0.19180680  0.08894978    -0.00700
H973        H  0.71312995  0.21553142  0.06684042     0.00700
H974        H  0.59445272  0.28029244  0.10256137     0.04400
H975        H  0.60978807  0.30026603  0.07604516     0.06300
H976        H  0.62137022  0.30311050  0.11033086     0.07200
C977        C  0.49596672  0.38147734  0.20454046    -0.22400
C978        C  0.47728844  0.38744466  0.22483995     0.09500
C979        C  0.48143891  0.41015230  0.24157169     0.10000
C980        C  0.50505398  0.42550391  0.23861395    -0.17300
C981        C  0.52468967  0.41840223  0.21953241    -0.27800
C982        C  0.51961039  0.39671666  0.20158828     0.18300
C983        C  0.45503995  0.36810203  0.22978448     0.12300
C984        C  0.46108490  0.41798845  0.26267455    -0.12100
H985        H  0.50874526  0.44238928  0.25205069     0.12500
C986        C  0.53881827  0.38970199  0.17910552    -0.22900
H987        H  0.49246504  0.36418574  0.19157526     0.08200
C988        C  0.43274541  0.36586304  0.21219224     0.04500
C989        C  0.41310535  0.34608812  0.21722684    -0.20200
C990        C  0.41551963  0.32827320  0.23917117    -0.12500
C991        C  0.43769100  0.33077659  0.25697414     0.13200
C992        C  0.45717791  0.35068426  0.25201673    -0.22900
C993        C  0.42962759  0.38435695  0.18824806    -0.06000
H994        H  0.39609206  0.34407407  0.20359804     0.14800
C995        C  0.44056607  0.31301213  0.28154899    -0.16100
H996        H  0.47442311  0.35251087  0.26537259     0.09100
H997        H  0.53054787  0.37363091  0.16581502     0.06900
H998        H  0.55813817  0.38217771  0.18748039     0.08100
H999        H  0.54258251  0.40781633  0.16644967     0.07200
H1000       H  0.45887882  0.40155744  0.27773308     0.02100
H1001       H  0.44129746  0.42178879  0.25288500     0.02500
H1002       H  0.46719000  0.43659215  0.27361654     0.06000
H1003       H  0.41073632  0.38019257  0.17691198     0.05000
H1004       H  0.44677127  0.38161648  0.17417499    -0.00700
H1005       H  0.42910078  0.40565554  0.19520221     0.00700
H1006       H  0.44333480  0.29166965  0.27538610     0.04400
H1007       H  0.42230603  0.31476064  0.29435105     0.06300
H1008       H  0.45827447  0.31884173  0.29401154     0.07200
C1009       C  0.66772759  0.40158937  0.20637392    -0.22400
C1010       C  0.66967100  0.38191764  0.22664549     0.09500
C1011       C  0.64815931  0.37832510  0.24486095     0.10000
C1012       C  0.62517086  0.39460681  0.24249235    -0.17300
C1013       C  0.62320142  0.41449518  0.22239489    -0.27800
C1014       C  0.64461525  0.41780196  0.20382297     0.18300
C1015       C  0.69393659  0.36454830  0.22822970     0.12300
C1016       C  0.64938454  0.35706803  0.26661085    -0.12100
H1017       H  0.60866395  0.39192677  0.25654380     0.12500
C1018       C  0.64336181  0.43722836  0.18041638    -0.22900
H1019       H  0.68414285  0.40395851  0.19215874     0.08200
C1020       C  0.69646905  0.34126875  0.21204137     0.04500
C1021       C  0.71803994  0.32353458  0.21662765    -0.20200
C1022       C  0.73725671  0.32863738  0.23691356    -0.12500
C1023       C  0.73512652  0.35244876  0.25255450     0.13200
C1024       C  0.71345035  0.37011744  0.24797477    -0.22900
C1025       C  0.67604590  0.33483759  0.19041053    -0.06000
H1026       H  0.71982756  0.30545620  0.20441260     0.14800
C1027       C  0.75474356  0.35864009  0.27499333    -0.16100
H1028       H  0.71119970  0.38798616  0.26039883     0.09100
H1029       H  0.64614072  0.42594596  0.16124338     0.06900
H1030       H  0.65972703  0.45238544  0.18239262     0.08100
H1031       H  0.62391643  0.44805741  0.17887797     0.07200
H1032       H  0.66652681  0.36124635  0.28042811     0.02100
H1033       H  0.65212317  0.33686061  0.25731044     0.02500
H1034       H  0.63066145  0.35660281  0.27883463     0.06000
H1035       H  0.68089606  0.31571658  0.17975712     0.05000
H1036       H  0.67561498  0.35132557  0.17523152    -0.00700
H1037       H  0.65575246  0.33273241  0.19955783     0.00700
H1038       H  0.74904413  0.37720004  0.28618481     0.04400
H1039       H  0.77519952  0.36189208  0.26661558     0.06300
H1040       H  0.75519515  0.34162779  0.28959432     0.07200
C1041       C  0.96745769  0.41320185  0.74320194    -0.22400
C1042       C  0.97491402  0.39088544  0.75882910     0.09500
C1043       C  0.99814760  0.39223844  0.77519584     0.10000
C1044       C  0.01303983  0.41636379  0.77614150    -0.17300
C1045       C  0.00495394  0.43921503  0.76134362    -0.27800
C1046       C  0.98228437  0.43725950  0.74393384     0.18300
C1047       C  0.95696138  0.36702078  0.75869018     0.12300
C1048       C  0.00671424  0.36850371  0.79215409    -0.12100
H1049       H  0.03048243  0.41770738  0.78928946     0.12500
C1050       C  0.97337756  0.45959633  0.72522285    -0.22900
H1051       H  0.94973906  0.41185854  0.73040440     0.08200
C1052       C  0.93418421  0.36602840  0.77560743     0.04500
C1053       C  0.91600152  0.34453704  0.77306798    -0.20200
C1054       C  0.91997686  0.32400981  0.75392539    -0.12500
C1055       C  0.94316939  0.32469997  0.73731897     0.13200
C1056       C  0.96140488  0.34630723  0.73992152    -0.22900
C1057       C  0.92884342  0.38794995  0.79601101    -0.06000
H1058       H  0.89840379  0.34385483  0.78598610     0.14800
C1059       C  0.94811548  0.30354318  0.71600489    -0.16100
H1060       H  0.97884999  0.34744318  0.72684225     0.09100
H1061       H  0.95326720  0.46708190  0.73152130     0.06900
H1062       H  0.97179135  0.45161478  0.70432249     0.08100
H1063       H  0.98759759  0.47676037  0.72436711     0.07200
H1064       H  0.01072234  0.35085888  0.77894450     0.02100
H1065       H  0.99051067  0.36324575  0.80664785     0.02500
H1066       H  0.02531680  0.37293689  0.80385577     0.06000
H1067       H  0.91016626  0.38402525  0.80768199     0.05000
H1068       H  0.92651662  0.40765184  0.78558071    -0.00700
H1069       H  0.94591092  0.38924222  0.81047720     0.00700
H1070       H  0.96634064  0.30814099  0.70386506     0.04400
H1071       H  0.93062465  0.30250345  0.70200891     0.06300
H1072       H  0.95122550  0.28355048  0.72561460     0.07200
C1073       C  0.96087648  0.56312142  0.77764486    -0.22400
C1074       C  0.97389193  0.58696616  0.77013558     0.09500
C1075       C  0.00200172  0.58691640  0.76629700     0.10000
C1076       C  0.01624300  0.56243296  0.76822654    -0.17300
C1077       C  0.00302732  0.53789255  0.77401023    -0.27800
C1078       C  0.97490968  0.53862474  0.77983061     0.18300
C1079       C  0.95703156  0.61112914  0.76491246     0.12300
C1080       C  0.01686786  0.61265113  0.75999445    -0.12100
H1081       H  0.03771578  0.56245496  0.76436096     0.12500
C1082       C  0.95916033  0.51406990  0.78857017    -0.22900
H1083       H  0.93930797  0.56360215  0.78106825     0.08200
C1084       C  0.94636209  0.61617376  0.73891349     0.04500
C1085       C  0.92772036  0.63717942  0.73531815    -0.20200
C1086       C  0.91932546  0.65298520  0.75717932    -0.12500
C1087       C  0.93019728  0.64817656  0.78319934     0.13200
C1088       C  0.94906923  0.62733414  0.78669355    -0.22900
C1089       C  0.95397070  0.59879993  0.71515111    -0.06000
H1090       H  0.91921665  0.64094919  0.71548219     0.14800
C1091       C  0.92159632  0.66392060  0.80782043    -0.16100
H1092       H  0.95695196  0.62311045  0.80669289     0.09100
H1093       H  0.95739837  0.49950312  0.77166983     0.06900
H1094       H  0.93829231  0.51932729  0.79469344     0.08100
H1095       H  0.96911832  0.50445939  0.80621819     0.07200
H1096       H  0.01382651  0.62736439  0.77662369     0.02100
H1097       H  0.00921386  0.62150631  0.74088684     0.02500
H1098       H  0.03885405  0.60914757  0.75776063     0.06000
H1099       H  0.94369073  0.60542977  0.69633951     0.05000
H1100       H  0.94817818  0.57752181  0.71912432    -0.00700
H1101       H  0.97602147  0.59985858  0.71172162     0.00700
H1102       H  0.91310088  0.64987812  0.82307672     0.04400
H1103       H  0.90605382  0.67935713  0.80337140     0.06300
H1104       H  0.93932450  0.67434444  0.81671803     0.07200
C1105       C  0.85637484  0.40839196  0.60883108    -0.22400
C1106       C  0.83326382  0.39247233  0.60592332     0.09500
C1107       C  0.81348303  0.39942368  0.58670365     0.10000
C1108       C  0.81720680  0.42254756  0.57082163    -0.17300
C1109       C  0.84021232  0.43873087  0.57392903    -0.27800
C1110       C  0.86031416  0.43130696  0.59282555     0.18300
C1111       C  0.83006275  0.36903049  0.62390534     0.12300
C1112       C  0.78851831  0.38250785  0.58311501    -0.12100
H1113       H  0.80183378  0.42838699  0.55637075     0.12500
C1114       C  0.88648652  0.44641456  0.59608014    -0.22900
H1115       H  0.87154798  0.40274080  0.62358552     0.08200
C1116       C  0.84283655  0.34424458  0.61845360     0.04500
C1117       C  0.84101131  0.32329340  0.63737367    -0.20200
C1118       C  0.82727034  0.32692224  0.66187806    -0.12500
C1119       C  0.81378741  0.35169727  0.66686333     0.13200
C1120       C  0.81531478  0.37237826  0.64766916    -0.22900
C1121       C  0.85874801  0.34015230  0.59292082    -0.06000
H1122       H  0.85122640  0.30436033  0.63345180     0.14800
C1123       C  0.79739454  0.35650774  0.69202429    -0.16100
H1124       H  0.80552425  0.39156792  0.65147136     0.09100
H1125       H  0.90358260  0.43229103  0.59304821     0.06900
H1126       H  0.88780424  0.45492565  0.61678340     0.08100
H1127       H  0.88892577  0.46296530  0.58127218     0.07200
H1128       H  0.77700598  0.38187616  0.60229824     0.02100
H1129       H  0.79426409  0.36164643  0.57731110     0.02500
H1130       H  0.77512197  0.39077269  0.56713417     0.06000
H1131       H  0.86730752  0.31947381  0.59172096     0.05000
H1132       H  0.87568761  0.35476883  0.59216959    -0.00700
H1133       H  0.84549907  0.34330273  0.57510398     0.00700
H1134       H  0.81070253  0.35740818  0.71002808     0.04400
H1135       H  0.78246482  0.34004508  0.69441842     0.06300
H1136       H  0.78622085  0.37591241  0.69109958     0.07200
C1137       C  0.85821486  0.56491965  0.61140764    -0.22400
C1138       C  0.84273125  0.58626000  0.60142796     0.09500
C1139       C  0.82968519  0.58387356  0.57628738     0.10000
C1140       C  0.83181510  0.55958243  0.56189123    -0.17300
C1141       C  0.84602547  0.53741012  0.57255579    -0.27800
C1142       C  0.85986654  0.54037832  0.59752099     0.18300
C1143       C  0.83857521  0.60974309  0.61916259     0.12300
C1144       C  0.81283460  0.60660500  0.56520606    -0.12100
H1145       H  0.82128073  0.55752698  0.54280482     0.12500
C1146       C  0.87653216  0.51809689  0.60983974    -0.22900
H1147       H  0.86816354  0.56718837  0.63080263     0.08200
C1148       C  0.81934011  0.60865551  0.63998552     0.04500
C1149       C  0.81792102  0.62988239  0.65845682    -0.20200
C1150       C  0.83511851  0.65221722  0.65664654    -0.12500
C1151       C  0.85454326  0.65329759  0.63570912     0.13200
C1152       C  0.85573129  0.63208205  0.61695691    -0.22900
C1153       C  0.80056362  0.58490401  0.64293897    -0.06000
H1154       H  0.80353823  0.62885817  0.67468404     0.14800
C1155       C  0.87541757  0.67532232  0.63343344    -0.16100
H1156       H  0.87086338  0.63240562  0.60119930     0.09100
H1157       H  0.86337047  0.50117239  0.61619474     0.06900
H1158       H  0.88752038  0.52500612  0.62815062     0.08100
H1159       H  0.89172548  0.51099523  0.59505889     0.07200
H1160       H  0.82551916  0.62488222  0.56263605     0.02100
H1161       H  0.79615621  0.61122542  0.57937618     0.02500
H1162       H  0.80388961  0.60139719  0.54529470     0.06000
H1163       H  0.78647052  0.58756209  0.66012007     0.05000
H1164       H  0.81233975  0.56620498  0.64655671    -0.00700
H1165       H  0.78841558  0.58248751  0.62424469     0.00700
H1166       H  0.89585786  0.66620381  0.63344153     0.04400
H1167       H  0.87491030  0.68986379  0.65034269     0.06300
H1168       H  0.87247911  0.68650444  0.61422175     0.07200
C1169       C  0.65226403  0.75999612  0.88893727    -0.22400
C1170       C  0.67481155  0.74423423  0.89520525     0.09500
C1171       C  0.67498780  0.72860476  0.91900161     0.10000
C1172       C  0.65171823  0.72761270  0.93508500    -0.17300
C1173       C  0.62845008  0.74217110  0.92797044    -0.27800
C1174       C  0.62931765  0.75973315  0.90535857     0.18300
C1175       C  0.69722696  0.74315169  0.87557580     0.12300
C1176       C  0.69942908  0.71239795  0.92689036    -0.12100
H1177       H  0.65134508  0.71456285  0.95265086     0.12500
C1178       C  0.60691344  0.77906736  0.89828132    -0.22900
H1179       H  0.65256064  0.77254546  0.87098905     0.08200
C1180       C  0.69547433  0.72662161  0.85245826     0.04500
C1181       C  0.71657958  0.72668176  0.83375184    -0.20200
C1182       C  0.73965479  0.74257278  0.83776084    -0.12500
C1183       C  0.74152327  0.75904990  0.86114233     0.13200
C1184       C  0.72013255  0.75917882  0.87972388    -0.22900
C1185       C  0.67141765  0.70867231  0.84768078    -0.06000
H1186       H  0.71519598  0.71394926  0.81599142     0.14800
C1187       C  0.76540985  0.77721360  0.86621192    -0.16100
H1188       H  0.72115588  0.77191195  0.89750135     0.09100
H1189       H  0.59744338  0.77292035  0.87889999     0.06900
H1190       H  0.61533901  0.79971221  0.89597526     0.08100
H1191       H  0.59122813  0.78047308  0.91406996     0.07200
H1192       H  0.71687199  0.72611658  0.92991752     0.02100
H1193       H  0.70428872  0.69767483  0.91071764     0.02500
H1194       H  0.69614529  0.70106503  0.94595423     0.06000
H1195       H  0.67341867  0.69686858  0.82873598     0.05000
H1196       H  0.65287124  0.72107499  0.84608154    -0.00700
H1197       H  0.66929874  0.69425343  0.86471318     0.00700
H1198       H  0.76265177  0.78972702  0.88461618     0.04400
H1199       H  0.76823963  0.79107428  0.84882083     0.06300
H1200       H  0.78387570  0.76496129  0.86923354     0.07200
C1201       C  0.67776683  0.56908090  0.76865206    -0.22400
C1202       C  0.67693805  0.59180534  0.75185967     0.09500
C1203       C  0.65387706  0.59710753  0.73614405     0.10000
C1204       C  0.63145642  0.58024592  0.73861519    -0.17300
C1205       C  0.63163160  0.55800811  0.75618844    -0.27800
C1206       C  0.65537860  0.55187697  0.77085809     0.18300
C1207       C  0.69974164  0.61081452  0.75188361     0.12300
C1208       C  0.65281695  0.62081115  0.71707502    -0.12100
H1209       H  0.61359965  0.58452728  0.72677027     0.12500
C1210       C  0.65703226  0.52787414  0.78938296    -0.22900
H1211       H  0.69579369  0.56514941  0.78041304     0.08200
C1212       C  0.70068274  0.63245162  0.77034487     0.04500
C1213       C  0.72114415  0.65172483  0.76799065    -0.20200
C1214       C  0.74029641  0.65008345  0.74728169    -0.12500
C1215       C  0.73896904  0.62862149  0.72847565     0.13200
C1216       C  0.71903982  0.60883930  0.73144130    -0.22900
C1217       C  0.67976797  0.63547387  0.79212822    -0.06000
H1218       H  0.72214796  0.66825821  0.78231693     0.14800
C1219       C  0.75697932  0.62684084  0.70417862    -0.16100
H1220       H  0.71768903  0.59250480  0.71691510     0.09100
H1221       H  0.67679859  0.52673096  0.79988802     0.06900
H1222       H  0.65462475  0.50918900  0.77739809     0.08100
H1223       H  0.64097715  0.52902256  0.80490353     0.07200
H1224       H  0.66884674  0.61877100  0.70161080     0.02100
H1225       H  0.65589975  0.63988733  0.72843114     0.02500
H1226       H  0.63313182  0.62210805  0.70644212     0.06000
H1227       H  0.68351306  0.65359433  0.80478407     0.05000
H1228       H  0.68006983  0.61747656  0.80547393    -0.00700
H1229       H  0.65947653  0.63749705  0.78286448     0.00700
H1230       H  0.77003996  0.60874009  0.70594935     0.04400
H1231       H  0.76971015  0.64499622  0.70164274     0.06300
H1232       H  0.74450427  0.62502301  0.68561132     0.07200
C1233       C  0.80279804  0.90868395  0.59198298    -0.22400
C1234       C  0.82066912  0.88687746  0.59394080     0.09500
C1235       C  0.83846030  0.88107186  0.57261956     0.10000
C1236       C  0.83839756  0.89764569  0.54984141    -0.17300
C1237       C  0.82058052  0.91952452  0.54765652    -0.27800
C1238       C  0.80242963  0.92511999  0.56888517     0.18300
C1239       C  0.81994212  0.86939764  0.61790487     0.12300
C1240       C  0.85699715  0.85696102  0.57361455    -0.12100
H1241       H  0.85209844  0.89323846  0.53341496     0.12500
C1242       C  0.78188212  0.94740185  0.56672942    -0.22900
H1243       H  0.78888128  0.91253097  0.60837443     0.08200
C1244       C  0.83829286  0.87291997  0.63936641     0.04500
C1245       C  0.83942565  0.85344155  0.65986217    -0.20200
C1246       C  0.82241004  0.83080876  0.65926925    -0.12500
C1247       C  0.80274288  0.82839235  0.63862085     0.13200
C1248       C  0.80215238  0.84751866  0.61788589    -0.22900
C1249       C  0.85680528  0.89701615  0.64033932    -0.06000
H1250       H  0.85408851  0.85549841  0.67599591     0.14800
C1251       C  0.78162016  0.80647423  0.63811108    -0.16100
H1252       H  0.78785262  0.84525718  0.60143990     0.09100
H1253       H  0.76833475  0.94785615  0.58454214     0.06900
H1254       H  0.76924474  0.94433822  0.54844147     0.08100
H1255       H  0.79215809  0.96725465  0.56548560     0.07200
H1256       H  0.84493903  0.83818484  0.57559968     0.02100
H1257       H  0.87088376  0.85862970  0.59111986     0.02500
H1258       H  0.86937642  0.85526275  0.55503660     0.06000
H1259       H  0.86989849  0.89668931  0.65855274     0.05000
H1260       H  0.84465727  0.91582731  0.64078522    -0.00700
H1261       H  0.86997497  0.89733107  0.62226722     0.00700
H1262       H  0.76133085  0.81572774  0.63616928     0.04400
H1263       H  0.78126442  0.79422411  0.65676320     0.06300
H1264       H  0.78506486  0.79297251  0.62056326     0.07200
C1265       C  0.69680906  0.77005494  0.56756083    -0.22400
C1266       C  0.68577600  0.75726053  0.59015685     0.09500
C1267       C  0.65870244  0.74877587  0.58957779     0.10000
C1268       C  0.64339861  0.75263474  0.56600969    -0.17300
C1269       C  0.65460332  0.76448178  0.54273584    -0.27800
C1270       C  0.68175116  0.77373294  0.54380451     0.18300
C1271       C  0.70344320  0.75214028  0.61378004     0.12300
C1272       C  0.64621369  0.73498437  0.61358392    -0.12100
H1273       H  0.62275092  0.74554124  0.56558319     0.12500
C1274       C  0.69519136  0.78787554  0.52046313    -0.22900
H1275       H  0.71760310  0.77673375  0.56842203     0.08200
C1276       C  0.72243829  0.73095389  0.61355001     0.04500
C1277       C  0.74011417  0.72788547  0.63547275    -0.20200
C1278       C  0.73893954  0.74521801  0.65783663    -0.12500
C1279       C  0.71939808  0.76607596  0.65837636     0.13200
C1280       C  0.70195467  0.76933119  0.63620486    -0.22900
C1281       C  0.72400287  0.71155915  0.59017133    -0.06000
H1282       H  0.75505282  0.71192838  0.63512897     0.14800
C1283       C  0.71758226  0.78564900  0.68164567    -0.16100
H1284       H  0.68736057  0.78560657  0.63611708     0.09100
H1285       H  0.69777611  0.77376069  0.50327585     0.06900
H1286       H  0.71559634  0.79535238  0.52590807     0.08100
H1287       H  0.68298762  0.80558686  0.51424209     0.07200
H1288       H  0.64669069  0.74869133  0.63130740     0.02100
H1289       H  0.65762398  0.71631584  0.61840888     0.02500
H1290       H  0.62490186  0.72931651  0.60969201     0.06000
H1291       H  0.73965291  0.69587257  0.59346788     0.05000
H1292       H  0.72907209  0.72261790  0.57136857    -0.00700
H1293       H  0.70429774  0.70125626  0.58754333     0.00700
H1294       H  0.70208606  0.80142229  0.67801860     0.04400
H1295       H  0.73723995  0.79593245  0.68464853     0.06300
H1296       H  0.71197656  0.77475888  0.70039007     0.07200
C1297       C  0.71792750  0.73273488  0.38043151    -0.22400
C1298       C  0.69762866  0.75165395  0.37531096     0.09500
C1299       C  0.69701983  0.76563077  0.35053398     0.10000
C1300       C  0.71662387  0.75985953  0.33105344    -0.17300
C1301       C  0.73725810  0.74114493  0.33627547    -0.27800
C1302       C  0.73797859  0.72746234  0.36135655     0.18300
C1303       C  0.67829168  0.75731704  0.39710961     0.12300
C1304       C  0.67596130  0.78676691  0.34482709    -0.12100
H1305       H  0.71641752  0.77071336  0.31203357     0.12500
C1306       C  0.75943584  0.70698562  0.36806353    -0.22900
H1307       H  0.71831361  0.72242778  0.39974897     0.08200
C1308       C  0.65751367  0.73901665  0.40358207     0.04500
C1309       C  0.64199026  0.74351783  0.42677806    -0.20200
C1310       C  0.64734467  0.76550897  0.44382598    -0.12500
C1311       C  0.66741751  0.78445033  0.43658720     0.13200
C1312       C  0.68271448  0.78001774  0.41332048    -0.22900
C1313       C  0.65229648  0.71441861  0.38644950    -0.06000
H1314       H  0.62662273  0.72903210  0.43242430     0.14800
C1315       C  0.67321920  0.80954980  0.45277605    -0.16100
H1316       H  0.69874596  0.79397956  0.40817778     0.09100
H1317       H  0.75991601  0.69120297  0.35216972     0.06900
H1318       H  0.75556855  0.69690055  0.38771289     0.08100
H1319       H  0.77941128  0.71692722  0.36961446     0.07200
H1320       H  0.67769895  0.80341513  0.35973242     0.02100
H1321       H  0.65558064  0.77764952  0.34622786     0.02500
H1322       H  0.67830237  0.79557609  0.32433078     0.06000
H1323       H  0.63509569  0.70238221  0.39421841     0.05000
H1324       H  0.67036006  0.70121883  0.38631256    -0.00700
H1325       H  0.64755765  0.72069807  0.36544673     0.00700
H1326       H  0.69409322  0.80864727  0.46083897     0.04400
H1327       H  0.65908072  0.81242947  0.46980034     0.06300
H1328       H  0.67136196  0.82753177  0.43951373     0.07200
C1329       C  0.79753329  0.84434584  0.37953268    -0.22400
C1330       C  0.81736868  0.86445255  0.38063258     0.09500
C1331       C  0.83785996  0.86526098  0.36099472     0.10000
C1332       C  0.83797645  0.84594609  0.34039471    -0.17300
C1333       C  0.81877483  0.82520992  0.33974460    -0.27800
C1334       C  0.79811700  0.82442092  0.35939398     0.18300
C1335       C  0.81829727  0.88254773  0.40421161     0.12300
C1336       C  0.86011725  0.88592295  0.36236138    -0.12100
H1337       H  0.85382224  0.84632497  0.32535829     0.12500
C1338       C  0.77665397  0.80284211  0.35913248    -0.22900
H1339       H  0.78210013  0.84378999  0.39498224     0.08200
C1340       C  0.80521001  0.90778314  0.40448642     0.04500
C1341       C  0.80781343  0.92440268  0.42731118    -0.20200
C1342       C  0.82344332  0.91629953  0.44958850    -0.12500
C1343       C  0.83751514  0.89140027  0.44855095     0.13200
C1344       C  0.83405874  0.87456334  0.42619968    -0.22900
C1345       C  0.78838679  0.91693541  0.38086698    -0.06000
H1346       H  0.79704098  0.94342067  0.42804850     0.14800
C1347       C  0.85724864  0.88231666  0.46993114    -0.16100
H1348       H  0.84454253  0.85536386  0.42545247     0.09100
H1349       H  0.76147688  0.80609207  0.37526384     0.06900
H1350       H  0.78585690  0.78272103  0.36253316     0.08100
H1351       H  0.76596394  0.80291514  0.33941941     0.07200
H1352       H  0.87149889  0.88357332  0.38154844     0.02100
H1353       H  0.85146791  0.90655336  0.36142374     0.02500
H1354       H  0.87455861  0.88364263  0.34541201     0.06000
H1355       H  0.77945952  0.93718235  0.38441976     0.05000
H1356       H  0.77172536  0.90238208  0.37736855    -0.00700
H1357       H  0.80105282  0.91806952  0.36245870     0.00700
H1358       H  0.84839277  0.86548726  0.48177469     0.04400
H1359       H  0.86344763  0.89881502  0.48368256     0.06300
H1360       H  0.87604696  0.87509767  0.46018461     0.07200
C1361       C  0.72274014  0.70886851  0.11729716    -0.22400
C1362       C  0.70104530  0.72691410  0.11847641     0.09500
C1363       C  0.70022835  0.74671269  0.13891979     0.10000
C1364       C  0.72106318  0.74789002  0.15797230    -0.17300
C1365       C  0.74263445  0.72963933  0.15719813    -0.27800
C1366       C  0.74349331  0.70971785  0.13662426     0.18300
C1367       C  0.67798952  0.72339425  0.09985501     0.12300
C1368       C  0.67711458  0.76633195  0.14088285    -0.12100
H1369       H  0.72044088  0.76307546  0.17373624     0.12500
C1370       C  0.76491812  0.68815276  0.13519058    -0.22900
H1371       H  0.72295809  0.69341446  0.10178945     0.08200
C1372       C  0.67610306  0.73764317  0.07530561     0.04500
C1373       C  0.65193159  0.73669100  0.06051845    -0.20200
C1374       C  0.62971516  0.72167415  0.06975129    -0.12500
C1375       C  0.63253225  0.70577543  0.09341563     0.13200
C1376       C  0.65661046  0.70703038  0.10822220    -0.22900
C1377       C  0.69947082  0.75402820  0.06498974    -0.06000
H1378       H  0.65012315  0.74838911  0.04210613     0.14800
C1379       C  0.61064747  0.68696382  0.10297401    -0.16100
H1380       H  0.65856113  0.69575770  0.12689755     0.09100
H1381       H  0.77656354  0.69043665  0.11620958     0.06900
H1382       H  0.75524158  0.66792987  0.13526927     0.08100
H1383       H  0.77911820  0.68859782  0.15242634     0.07200
H1384       H  0.65796271  0.75516250  0.14388735     0.02100
H1385       H  0.67571959  0.77839306  0.12204371     0.02500
H1386       H  0.67969076  0.78051282  0.15806873     0.06000
H1387       H  0.69470345  0.76386361  0.04539562     0.05000
H1388       H  0.71716820  0.74066165  0.06198825    -0.00700
H1389       H  0.70477786  0.77001333  0.07977716     0.00700
H1390       H  0.61749679  0.67431609  0.12019577     0.04400
H1391       H  0.60462714  0.67319145  0.08632249     0.06300
H1392       H  0.59296938  0.69864662  0.11000177     0.07200
C1393       C  0.67632265  0.56509957  0.21996252    -0.22400
C1394       C  0.67707880  0.58718686  0.23764998     0.09500
C1395       C  0.65407164  0.59382083  0.25287626     0.10000
C1396       C  0.63073118  0.57822019  0.25008772    -0.17300
C1397       C  0.62955793  0.55630162  0.23212274    -0.27800
C1398       C  0.65277789  0.54951643  0.21691613     0.18300
C1399       C  0.70106447  0.60491801  0.23812229     0.12300
C1400       C  0.65388194  0.61788011  0.27151987    -0.12100
H1401       H  0.61307714  0.58345648  0.26181726     0.12500
C1402       C  0.65257625  0.52690559  0.19654628    -0.22900
H1403       H  0.69401360  0.56051915  0.20801490     0.08200
C1404       C  0.72183779  0.60179305  0.25736631     0.04500
C1405       C  0.74245808  0.62123694  0.25877383    -0.20200
C1406       C  0.74232654  0.64387363  0.24165036    -0.12500
C1407       C  0.72212917  0.64614768  0.22151388     0.13200
C1408       C  0.70178131  0.62659988  0.22004065    -0.22900
C1409       C  0.72190355  0.57824497  0.27660315    -0.06000
H1410       H  0.75818788  0.61926465  0.27387035     0.14800
C1411       C  0.72213894  0.66881777  0.20115483    -0.16100
H1412       H  0.68583555  0.62861270  0.20517277     0.09100
H1413       H  0.64936019  0.50728622  0.20685107     0.06900
H1414       H  0.67196939  0.52557503  0.18546884     0.08100
H1415       H  0.63630880  0.53032030  0.18149717     0.07200
H1416       H  0.65777193  0.63658271  0.25980736     0.02100
H1417       H  0.66970411  0.61556923  0.28720997     0.02500
H1418       H  0.63419391  0.62020347  0.28188023     0.06000
H1419       H  0.73968289  0.57870981  0.29025959     0.05000
H1420       H  0.72240688  0.55906425  0.26501917    -0.00700
H1421       H  0.70347164  0.57863861  0.28923815     0.00700
H1422       H  0.70611460  0.66617714  0.18568252     0.04400
H1423       H  0.74181481  0.66944994  0.19055129     0.06300
H1424       H  0.71843033  0.68839772  0.21132801     0.07200
C1425       C  0.96028478  0.63011697  0.28063769    -0.22400
C1426       C  0.95857400  0.60697927  0.26444882     0.09500
C1427       C  0.93781513  0.60476008  0.24507613     0.10000
C1428       C  0.91917001  0.62581618  0.24227915    -0.17300
C1429       C  0.92074257  0.64907174  0.25841182    -0.27800
C1430       C  0.94153903  0.65122300  0.27798671     0.18300
C1431       C  0.97758913  0.58444859  0.26924503     0.12300
C1432       C  0.93527376  0.58009782  0.22744506    -0.12100
H1433       H  0.90317001  0.62408071  0.22743389     0.12500
C1434       C  0.94335586  0.67495330  0.29701172    -0.22900
H1435       H  0.97605453  0.63136768  0.29576965     0.08200
C1436       C  0.00350363  0.58390328  0.25765670     0.04500
C1437       C  0.01986952  0.56102225  0.26135290    -0.20200
C1438       C  0.01086515  0.53874195  0.27647386    -0.12500
C1439       C  0.98554177  0.54037244  0.28969870     0.13200
C1440       C  0.96907820  0.56293107  0.28537885    -0.22900
C1441       C  0.01344611  0.60707615  0.24071439    -0.06000
H1442       H  0.03924040  0.56005796  0.25134685     0.14800
C1443       C  0.97531436  0.51919825  0.30903047    -0.16100
H1444       H  0.94937303  0.56381207  0.29477035     0.09100
H1445       H  0.94752635  0.69372899  0.28555292     0.06900
H1446       H  0.95983250  0.67239108  0.31201909     0.08100
H1447       H  0.92416707  0.67716767  0.30828691     0.07200
H1448       H  0.93200207  0.56194469  0.24016240     0.02100
H1449       H  0.95397104  0.57743204  0.21548017     0.02500
H1450       H  0.91806050  0.58177390  0.21316430     0.06000
H1451       H  0.03408237  0.60335495  0.23293144     0.05000
H1452       H  0.01392153  0.62579594  0.25303115    -0.00700
H1453       H  0.99978299  0.61010069  0.22318837     0.00700
H1454       H  0.96872327  0.52905558  0.32804753     0.04400
H1455       H  0.99088002  0.50430617  0.31489267     0.06300
H1456       H  0.95781744  0.50854963  0.29993226     0.07200
C1457       C  0.00096566  0.39278187  0.27584708    -0.22400
C1458       C  0.97549045  0.39551937  0.26378209     0.09500
C1459       C  0.96783693  0.42053571  0.25267943     0.10000
C1460       C  0.98523488  0.44263040  0.25496794    -0.17300
C1461       C  0.01052248  0.44042545  0.26765550    -0.27800
C1462       C  0.01879152  0.41489078  0.27768794     0.18300
C1463       C  0.95664575  0.37228941  0.26303264     0.12300
C1464       C  0.94133212  0.42387067  0.23812459    -0.12100
H1465       H  0.97894930  0.46187436  0.24666598     0.12500
C1466       C  0.04584106  0.41085900  0.29096034    -0.22900
H1467       H  0.00677798  0.37333326  0.28402233     0.08200
C1468       C  0.95861103  0.35210970  0.24306807     0.04500
C1469       C  0.93848907  0.33225712  0.24129530    -0.20200
C1470       C  0.91633089  0.33225232  0.25890175    -0.12500
C1471       C  0.91488592  0.35200716  0.27957298     0.13200
C1472       C  0.93500980  0.37186207  0.28119043    -0.22900
C1473       C  0.98155005  0.35197459  0.22323047    -0.06000
H1474       H  0.93973002  0.31697684  0.22566991     0.14800
C1475       C  0.89305514  0.35245703  0.30074315    -0.16100
H1476       H  0.93368784  0.38736479  0.29659726     0.09100
H1477       H  0.06216600  0.41466975  0.27615889     0.06900
H1478       H  0.04835435  0.38989659  0.29852344     0.08100
H1479       H  0.04801211  0.42479184  0.30839043     0.07200
H1480       H  0.92439483  0.41973020  0.25210833     0.02100
H1481       H  0.94032299  0.40960094  0.22085643     0.02500
H1482       H  0.93876209  0.44464879  0.23009904     0.06000
H1483       H  0.97985506  0.33497981  0.20871393     0.05000
H1484       H  0.00095941  0.34988393  0.23420967    -0.00700
H1485       H  0.98163974  0.37112562  0.21158226     0.00700
H1486       H  0.90237827  0.35169823  0.32114070     0.04400
H1487       H  0.87903327  0.33515622  0.29938539     0.06300
H1488       H  0.88125543  0.37141457  0.29893065     0.07200
C1489       C  0.85450596  0.60779295  0.35966677    -0.22400
C1490       C  0.83378660  0.60597407  0.37874724     0.09500
C1491       C  0.81353270  0.62590842  0.37949605     0.10000
C1492       C  0.81383780  0.64665043  0.36022164    -0.17300
C1493       C  0.83374443  0.64764069  0.34016190    -0.27800
C1494       C  0.85492322  0.62853075  0.34046678     0.18300
C1495       C  0.83299486  0.58206628  0.39657404     0.12300
C1496       C  0.79118532  0.62477699  0.39999165    -0.12100
H1497       H  0.79797557  0.66163097  0.36022920     0.12500
C1498       C  0.87858050  0.62972410  0.32142473    -0.22900
H1499       H  0.87032150  0.59269123  0.35958847     0.08200
C1500       C  0.82482662  0.55678532  0.38649541     0.04500
C1501       C  0.82558460  0.53426667  0.40349972    -0.20200
C1502       C  0.83457757  0.53615704  0.43044471    -0.12500
C1503       C  0.84227485  0.56186687  0.44067272     0.13200
C1504       C  0.84133624  0.58446149  0.42349470    -0.22900
C1505       C  0.81528639  0.55353999  0.35773082    -0.06000
H1506       H  0.81926052  0.51493881  0.39543630     0.14800
C1507       C  0.85229719  0.56584755  0.46916851    -0.16100
H1508       H  0.84759015  0.60408160  0.43091203     0.09100
H1509       H  0.87865402  0.61153128  0.30833266     0.06900
H1510       H  0.89760904  0.63023423  0.33326093     0.08100
H1511       H  0.87850900  0.64789390  0.30843028     0.07200
H1512       H  0.79974685  0.62598809  0.42068218     0.02100
H1513       H  0.77987534  0.60555967  0.39777626     0.02500
H1514       H  0.77677342  0.64174611  0.39743632     0.06000
H1515       H  0.80899958  0.53247050  0.35333531     0.05000
H1516       H  0.83173665  0.55883627  0.34354839    -0.00700
H1517       H  0.79776398  0.56696650  0.35399132     0.00700
H1518       H  0.85839514  0.58708396  0.47299763     0.04400
H1519       H  0.87018108  0.55289974  0.47287929     0.06300
H1520       H  0.83610050  0.56088669  0.48376808     0.07200
C1521       C  0.85391799  0.41132475  0.39196932    -0.22400
C1522       C  0.83373978  0.39227473  0.39705950     0.09500
C1523       C  0.81737847  0.39484880  0.42015870     0.10000
C1524       C  0.82043236  0.41758376  0.43683284    -0.17300
C1525       C  0.83950863  0.43759999  0.43078487    -0.27800
C1526       C  0.85710533  0.43397182  0.40862190     0.18300
C1527       C  0.83009974  0.36995526  0.37763887     0.12300
C1528       C  0.79672958  0.37366854  0.42706586    -0.12100
H1529       H  0.80724505  0.42023631  0.45404623     0.12500
C1530       C  0.87959455  0.45358452  0.40273724    -0.22900
H1531       H  0.86686987  0.40867944  0.37456477     0.08200
C1532       C  0.81142052  0.37184026  0.35619639     0.04500
C1533       C  0.80970450  0.35072526  0.33743388    -0.20200
C1534       C  0.82635464  0.32792634  0.33956000    -0.12500
C1535       C  0.84522257  0.32620024  0.36101141     0.13200
C1536       C  0.84676843  0.34728976  0.37983708    -0.22900
C1537       C  0.79388632  0.39643305  0.35267122    -0.06000
H1538       H  0.79555505  0.35216640  0.32080258     0.14800
C1539       C  0.86468909  0.30292898  0.36347312    -0.16100
H1540       H  0.86136397  0.34637076  0.39613211     0.09100
H1541       H  0.87131280  0.47349927  0.39678498     0.06900
H1542       H  0.89254302  0.44644983  0.38592312     0.08100
H1543       H  0.89251420  0.45593655  0.42092784     0.07200
H1544       H  0.80687954  0.35391565  0.43001908     0.02100
H1545       H  0.78176832  0.37175474  0.41050389     0.02500
H1546       H  0.78572774  0.37872999  0.44589881     0.06000
H1547       H  0.78053865  0.39462019  0.33471900     0.05000
H1548       H  0.80672501  0.41458770  0.34999747    -0.00700
H1549       H  0.78095078  0.39927059  0.37067636     0.00700
H1550       H  0.87655609  0.30092227  0.34458769     0.04400
H1551       H  0.85355647  0.28391242  0.36740514     0.06300
H1552       H  0.87910209  0.30588382  0.38040907     0.07200
C1553       C  0.44008279  0.60228305  0.74693800    -0.22400
C1554       C  0.46100823  0.60810307  0.76505438     0.09500
C1555       C  0.46032712  0.63221520  0.78018531     0.10000
C1556       C  0.43913071  0.65047813  0.77613366    -0.17300
C1557       C  0.41856575  0.64519521  0.75731711    -0.27800
C1558       C  0.41875393  0.62048302  0.74288635     0.18300
C1559       C  0.48535974  0.59088713  0.76465021     0.12300
C1560       C  0.48220303  0.63885815  0.80026415    -0.12100
H1561       H  0.43873294  0.66914294  0.78756885     0.12500
C1562       C  0.39744936  0.61374266  0.72218926    -0.22900
H1563       H  0.44103158  0.58385019  0.73517898     0.08200
C1564       C  0.48771608  0.56700348  0.77995505     0.04500
C1565       C  0.51167927  0.55185198  0.77848866    -0.20200
C1566       C  0.53327247  0.56020948  0.76209227    -0.12500
C1567       C  0.53028151  0.58385701  0.74615210     0.13200
C1568       C  0.50641861  0.59879999  0.74775356    -0.22900
C1569       C  0.46504777  0.55771953  0.79782981    -0.06000
H1570       H  0.51372679  0.53368905  0.79052296     0.14800
C1571       C  0.55165647  0.59328709  0.72672521    -0.16100
H1572       H  0.50411244  0.61697083  0.73574982     0.09100
H1573       H  0.37756649  0.61150899  0.73213197     0.06900
H1574       H  0.40185100  0.59444706  0.71165966     0.08100
H1575       H  0.39639055  0.62994645  0.70672208     0.07200
H1576       H  0.50193509  0.64020436  0.78985524     0.02100
H1577       H  0.48319808  0.62284937  0.81592295     0.02500
H1578       H  0.47844980  0.65843704  0.81053430     0.06000
H1579       H  0.47016612  0.53869780  0.80854954     0.05000
H1580       H  0.44672727  0.55407768  0.78544620    -0.00700
H1581       H  0.46060235  0.57343757  0.81316587     0.00700
H1582       H  0.54448741  0.61027879  0.71395672     0.04400
H1583       H  0.55747991  0.57652749  0.71304055     0.06300
H1584       H  0.56945329  0.60069231  0.73806686     0.07200
C1585       C  0.45787472  0.75515367  0.86009200    -0.22400
C1586       C  0.46040554  0.73188684  0.87601885     0.09500
C1587       C  0.44108125  0.71112723  0.87387871     0.10000
C1588       C  0.41993056  0.71379926  0.85523953    -0.17300
C1589       C  0.41801543  0.73654853  0.83848759    -0.27800
C1590       C  0.43686531  0.75780656  0.84129932     0.18300
C1591       C  0.48426785  0.72924543  0.89376654     0.12300
C1592       C  0.44320781  0.68592114  0.89073778    -0.12100
H1593       H  0.40538463  0.69760923  0.85299003     0.12500
C1594       C  0.43527641  0.78358229  0.82513506    -0.22900
H1595       H  0.47267457  0.77115226  0.86204198     0.08200
C1596       C  0.50884484  0.71934030  0.88365872     0.04500
C1597       C  0.53160856  0.71914528  0.90044641    -0.20200
C1598       C  0.53042292  0.72842174  0.92728134    -0.12500
C1599       C  0.50529334  0.73732834  0.93771002     0.13200
C1600       C  0.48258966  0.73775105  0.92066624    -0.22900
C1601       C  0.51106322  0.70921189  0.85504083    -0.06000
H1602       H  0.55056651  0.71190026  0.89240822     0.14800
C1603       C  0.50220943  0.74735674  0.96629183    -0.16100
H1604       H  0.46347543  0.74516022  0.92818223     0.09100
H1605       H  0.45372670  0.78582184  0.81270054     0.06900
H1606       H  0.43383665  0.80105810  0.83910853     0.08100
H1607       H  0.41754293  0.78436609  0.81153008     0.07200
H1608       H  0.44247592  0.69128192  0.91248785     0.02100
H1609       H  0.46250300  0.67547536  0.88642138     0.02500
H1610       H  0.42648220  0.67163694  0.88642996     0.06000
H1611       H  0.53171711  0.70198150  0.85039929     0.05000
H1612       H  0.50604390  0.72568433  0.84069238    -0.00700
H1613       H  0.49689716  0.69215146  0.85186574     0.00700
H1614       H  0.48144882  0.75465604  0.97032738     0.04400
H1615       H  0.51624610  0.76441307  0.97003934     0.06300
H1616       H  0.50635025  0.73073857  0.98074931     0.07200
C1617       C  0.15542439  0.58569691  0.76260738    -0.22400
C1618       C  0.18170254  0.58222427  0.75298715     0.09500
C1619       C  0.19095815  0.55619284  0.74646613     0.10000
C1620       C  0.17378900  0.53406331  0.75004627    -0.17300
C1621       C  0.14748501  0.53705786  0.76035582    -0.27800
C1622       C  0.13805181  0.56351793  0.76627803     0.18300
C1623       C  0.20004020  0.60572609  0.75158053     0.12300
C1624       C  0.21926874  0.55165508  0.73639958    -0.12100
H1625       H  0.18127027  0.51417272  0.74494319     0.12500
C1626       C  0.11017087  0.56880744  0.77705945    -0.22900
H1627       H  0.14865385  0.60588238  0.76762145     0.08200
C1628       C  0.20442323  0.61989133  0.72723707     0.04500
C1629       C  0.22434967  0.64001057  0.72638134    -0.20200
C1630       C  0.23960533  0.64625372  0.74941071    -0.12500
C1631       C  0.23411960  0.63320045  0.77411048     0.13200
C1632       C  0.21450958  0.61284598  0.77486026    -0.22900
C1633       C  0.18797241  0.61388954  0.70235310    -0.06000
H1634       H  0.22821231  0.65073278  0.70769691     0.14800
C1635       C  0.24863361  0.64112660  0.79970421    -0.16100
H1636       H  0.21067756  0.60214905  0.79356146     0.09100
H1637       H  0.09483601  0.56272335  0.76188582     0.06900
H1638       H  0.10690933  0.59055008  0.78144921     0.08100
H1639       H  0.10710072  0.55748317  0.79615335     0.07200
H1640       H  0.23398544  0.55879118  0.75173482     0.02100
H1641       H  0.22254105  0.56287926  0.71730595     0.02500
H1642       H  0.22332525  0.52997122  0.73242464     0.06000
H1643       H  0.19384732  0.62700630  0.68514854     0.05000
H1644       H  0.16631836  0.61740371  0.70668408    -0.00700
H1645       H  0.19077550  0.59257417  0.69612987     0.00700
H1646       H  0.24147579  0.62930333  0.81734473     0.04400
H1647       H  0.24508281  0.66285385  0.80398090     0.06300
H1648       H  0.27059633  0.63759697  0.79747602     0.07200
C1649       C  0.30765087  0.60166780  0.64265650    -0.22400
C1650       C  0.32573648  0.60175909  0.62102610     0.09500
C1651       C  0.34373998  0.62352063  0.61775261     0.10000
C1652       C  0.34352764  0.64466779  0.63660812    -0.17300
C1653       C  0.32633550  0.64402431  0.65907361    -0.27800
C1654       C  0.30786550  0.62236680  0.66194460     0.18300
C1655       C  0.32650011  0.57794768  0.60308287     0.12300
C1656       C  0.36367735  0.62394632  0.59487504    -0.12100
H1657       H  0.35748344  0.66128410  0.63432405     0.12500
C1658       C  0.28809871  0.62098440  0.68502651    -0.22900
H1659       H  0.29383761  0.58485038  0.64483878     0.08200
C1660       C  0.33981562  0.55415380  0.61110141     0.04500
C1661       C  0.33946346  0.53169611  0.59396413    -0.20200
C1662       C  0.32636601  0.53246956  0.56876341    -0.12500
C1663       C  0.31310782  0.55657230  0.56068482     0.13200
C1664       C  0.31331147  0.57897871  0.57808887    -0.22900
C1665       C  0.35469820  0.55259457  0.63762851    -0.06000
H1666       H  0.34981059  0.51347247  0.60023313     0.14800
C1667       C  0.29799586  0.55878111  0.53432874    -0.16100
H1668       H  0.30304651  0.59740750  0.57228235     0.09100
H1669       H  0.29894850  0.61811370  0.70441960     0.06900
H1670       H  0.27388850  0.60379923  0.68276094     0.08100
H1671       H  0.27604497  0.63981844  0.68587292     0.07200
H1672       H  0.35280026  0.62372727  0.57526594     0.02100
H1673       H  0.37694874  0.60594480  0.59613763     0.02500
H1674       H  0.37660125  0.64224755  0.59550685     0.06000
H1675       H  0.36439620  0.53260569  0.64058063     0.05000
H1676       H  0.34051560  0.55591302  0.65459678    -0.00700
H1677       H  0.37067479  0.56828005  0.63825009     0.00700
H1678       H  0.28257107  0.54259588  0.53298153     0.04400
H1679       H  0.31218242  0.55717416  0.51715331     0.06300
H1680       H  0.28750031  0.57848623  0.53236904     0.07200
C1681       C  0.31412680  0.86147964  0.63154318    -0.22400
C1682       C  0.33812927  0.86402076  0.61691501     0.09500
C1683       C  0.36010706  0.84695527  0.62286135     0.10000
C1684       C  0.35736817  0.82726981  0.64304954    -0.17300
C1685       C  0.33323759  0.82448039  0.65747150    -0.27800
C1686       C  0.31133645  0.84185082  0.65175073     0.18300
C1687       C  0.33891949  0.88292712  0.59379748     0.12300
C1688       C  0.38621668  0.84924205  0.60758365    -0.12100
H1689       H  0.37413007  0.81399686  0.64765487     0.12500
C1690       C  0.28451021  0.83969070  0.66580858    -0.22900
H1691       H  0.29721150  0.87445449  0.62664477     0.08200
C1692       C  0.32748393  0.87563678  0.56881151     0.04500
C1693       C  0.32897267  0.89364323  0.54713355    -0.20200
C1694       C  0.34206528  0.91876869  0.54947236    -0.12500
C1695       C  0.35350509  0.92610397  0.57474647     0.13200
C1696       C  0.35164115  0.90804021  0.59662796    -0.22900
C1697       C  0.31425349  0.84851529  0.56480754    -0.06000
H1698       H  0.31999351  0.88778066  0.52804461     0.14800
C1699       C  0.36848902  0.95226824  0.57875311    -0.16100
H1700       H  0.36046224  0.91330998  0.61596886     0.09100
H1701       H  0.26847787  0.83567026  0.65064946     0.06900
H1702       H  0.27998611  0.85903403  0.67616611     0.08100
H1703       H  0.28379911  0.82326924  0.68098159     0.07200
H1704       H  0.39492190  0.86968143  0.61051888     0.02100
H1705       H  0.38254987  0.84583279  0.58572138     0.02500
H1706       H  0.40125788  0.83418724  0.61461648     0.06000
H1707       H  0.30685312  0.84582803  0.54379100     0.05000
H1708       H  0.29677965  0.84646498  0.57859280    -0.00700
H1709       H  0.32897554  0.83219334  0.56912316     0.00700
H1710       H  0.35457775  0.96958906  0.57601829     0.04400
H1711       H  0.38533678  0.95368195  0.56410698     0.06300
H1712       H  0.37718971  0.95382012  0.59938419     0.07200
C1713       C  0.47711288  0.77575670  0.58242062    -0.22400
C1714       C  0.48013857  0.75173722  0.59704649     0.09500
C1715       C  0.50030193  0.73310857  0.58963252     0.10000
C1716       C  0.51632958  0.73845744  0.56692491    -0.17300
C1717       C  0.51238357  0.76189502  0.55151630    -0.27800
C1718       C  0.49319911  0.78123035  0.55988089     0.18300
C1719       C  0.46112410  0.74617058  0.61932200     0.12300
C1720       C  0.50459388  0.70751014  0.60546288    -0.12100
H1721       H  0.53113662  0.72374262  0.56045970     0.12500
C1722       C  0.48942360  0.80792252  0.54574149    -0.22900
H1723       H  0.46185079  0.79019310  0.58846432     0.08200
C1724       C  0.46364497  0.75893153  0.64462552     0.04500
C1725       C  0.44388288  0.75453087  0.66437824    -0.20200
C1726       C  0.42148317  0.73785895  0.65926793    -0.12500
C1727       C  0.41967156  0.72420756  0.63414839     0.13200
C1728       C  0.43949336  0.72866693  0.61448457    -0.22900
C1729       C  0.48712919  0.77724712  0.65066372    -0.06000
H1730       H  0.44552409  0.76484477  0.68361900     0.14800
C1731       C  0.39747337  0.70430951  0.62813268    -0.16100
H1732       H  0.43794724  0.71875555  0.59501800     0.09100
H1733       H  0.49250032  0.82458369  0.56043477     0.06900
H1734       H  0.46863735  0.80924365  0.53753519     0.08100
H1735       H  0.50385929  0.81108577  0.52899495     0.07200
H1736       H  0.48608655  0.69494502  0.60482177     0.02100
H1737       H  0.50940633  0.71254153  0.62678580     0.02500
H1738       H  0.52146310  0.69536396  0.59717287     0.06000
H1739       H  0.48639167  0.78512792  0.67164057     0.05000
H1740       H  0.48696307  0.79473163  0.63664892    -0.00700
H1741       H  0.50628037  0.76594923  0.64816058     0.00700
H1742       H  0.37775439  0.71475780  0.62691059     0.04400
H1743       H  0.39692094  0.68869453  0.64420576     0.06300
H1744       H  0.40063694  0.69389085  0.60853034     0.07200
C1745       C  0.46161764  0.34819466  0.73845435    -0.22400
C1746       C  0.46044149  0.36698197  0.75954187     0.09500
C1747       C  0.43761863  0.36808927  0.77634116     0.10000
C1748       C  0.41665722  0.34957242  0.77216376    -0.17300
C1749       C  0.41818029  0.33015858  0.75154615    -0.27800
C1750       C  0.44058003  0.32993754  0.73396514     0.18300
C1751       C  0.48362663  0.38513356  0.76343374     0.12300
C1752       C  0.43567369  0.38844914  0.79883491    -0.12100
H1753       H  0.39937985  0.34970880  0.78552705     0.12500
C1754       C  0.44264336  0.31140701  0.70987189    -0.22900
H1755       H  0.47907562  0.34788527  0.72532396     0.08200
C1756       C  0.50657194  0.37658576  0.77782198     0.04500
C1757       C  0.52956096  0.39293314  0.77792074    -0.20200
C1758       C  0.53003197  0.41777996  0.76420208    -0.12500
C1759       C  0.50640226  0.42689229  0.75084538     0.13200
C1760       C  0.48351160  0.41026319  0.75054610    -0.22900
C1761       C  0.50685453  0.35007407  0.79276331    -0.06000
H1762       H  0.54741978  0.38608388  0.78853766     0.14800
C1763       C  0.50534187  0.45335613  0.73583929    -0.16100
H1764       H  0.46562636  0.41650355  0.73959566     0.09100
H1765       H  0.46009498  0.29763667  0.71249925     0.06900
H1766       H  0.44573646  0.32363772  0.69133825     0.08100
H1767       H  0.42430170  0.29911067  0.70649205     0.07200
H1768       H  0.43674440  0.40917704  0.79037823     0.02100
H1769       H  0.45254821  0.38550844  0.81328816     0.02500
H1770       H  0.41644745  0.38649520  0.81010561     0.06000
H1771       H  0.52641564  0.34654542  0.80311728     0.05000
H1772       H  0.50337374  0.33318845  0.77844226    -0.00700
H1773       H  0.49073932  0.34997984  0.80827421     0.00700
H1774       H  0.48566325  0.45633122  0.72552901     0.04400
H1775       H  0.52133793  0.45393265  0.72021523     0.06300
H1776       H  0.50803593  0.47037724  0.75016342     0.07200
C1777       C  0.46219662  0.25560821  0.85644173    -0.22400
C1778       C  0.46048568  0.23674695  0.87739804     0.09500
C1779       C  0.43648034  0.22211837  0.88137451     0.10000
C1780       C  0.41508387  0.22550910  0.86310500    -0.17300
C1781       C  0.41724415  0.24347125  0.84124926    -0.27800
C1782       C  0.44063747  0.25963811  0.83863644     0.18300
C1783       C  0.48409556  0.23306336  0.89514262     0.12300
C1784       C  0.43378307  0.20261764  0.90453503    -0.12100
H1785       H  0.39701608  0.21342223  0.86533048     0.12500
C1786       C  0.44326835  0.28187905  0.81796969    -0.22900
H1787       H  0.48043324  0.26744822  0.85413433     0.08200
C1788       C  0.50591202  0.21667189  0.88737285     0.04500
C1789       C  0.52872248  0.21532575  0.90402811    -0.20200
C1790       C  0.53012558  0.22983551  0.92840948    -0.12500
C1791       C  0.50764130  0.24562044  0.93653447     0.13200
C1792       C  0.48501084  0.24709395  0.91960542    -0.22900
C1793       C  0.50508706  0.20069211  0.86148792    -0.06000
H1794       H  0.54563698  0.20296223  0.89785311     0.14800
C1795       C  0.50739249  0.26180426  0.96234801    -0.16100
H1796       H  0.46798666  0.25957151  0.92524634     0.09100
H1797       H  0.45953523  0.27681977  0.80348309     0.06900
H1798       H  0.44851346  0.30107074  0.82832822     0.08100
H1799       H  0.42440609  0.28568170  0.80659977     0.07200
H1800       H  0.43660433  0.21344406  0.92396625     0.02100
H1801       H  0.44922597  0.18650507  0.90279106     0.02500
H1802       H  0.41360053  0.19303941  0.90486249     0.06000
H1803       H  0.52373376  0.18865453  0.85858920     0.05000
H1804       H  0.50292812  0.21455417  0.84400614    -0.00700
H1805       H  0.48770810  0.18657533  0.86184534     0.00700
H1806       H  0.48869345  0.27393951  0.96438727     0.04400
H1807       H  0.52470074  0.27600437  0.96271022     0.06300
H1808       H  0.50832691  0.24807464  0.98003784     0.07200
C1809       C  0.35139300  0.39111738  0.57516779    -0.22400
C1810       C  0.33234037  0.38709402  0.59557140     0.09500
C1811       C  0.31150811  0.40600980  0.59941842     0.10000
C1812       C  0.31070285  0.42915480  0.58326818    -0.17300
C1813       C  0.33032110  0.43389025  0.56348037    -0.27800
C1814       C  0.35088031  0.41450604  0.55916510     0.18300
C1815       C  0.33601459  0.36472516  0.61484533     0.12300
C1816       C  0.29050638  0.40202920  0.62101656    -0.12100
H1817       H  0.29497597  0.44398868  0.58649496     0.12500
C1818       C  0.37355803  0.41840917  0.53933713    -0.22900
H1819       H  0.36749702  0.37655739  0.57260410     0.08200
C1820       C  0.32425355  0.33923829  0.61061100     0.04500
C1821       C  0.32477005  0.32024660  0.63157211    -0.20200
C1822       C  0.33635395  0.32643327  0.65681128    -0.12500
C1823       C  0.34978926  0.35148977  0.66024362     0.13200
C1824       C  0.34942092  0.37026850  0.63910381    -0.22900
C1825       C  0.31053618  0.33245091  0.58432040    -0.06000
H1826       H  0.31513587  0.30085549  0.62851559     0.14800
C1827       C  0.36482883  0.35865768  0.68578722    -0.16100
H1828       H  0.35873070  0.38988933  0.64183931     0.09100
H1829       H  0.37277986  0.40224084  0.52382831     0.06900
H1830       H  0.39313549  0.41712265  0.55017075     0.08100
H1831       H  0.37307881  0.43816326  0.52896014     0.07200
H1832       H  0.30026180  0.40130858  0.64119948     0.02100
H1833       H  0.27955641  0.38280812  0.61744485     0.02500
H1834       H  0.27553847  0.41868600  0.62116479     0.06000
H1835       H  0.30241958  0.31154885  0.58433907     0.05000
H1836       H  0.32516979  0.33423093  0.56749082    -0.00700
H1837       H  0.29353624  0.34656565  0.58073777     0.00700
H1838       H  0.37591544  0.37803186  0.68373313     0.04400
H1839       H  0.37979429  0.34268382  0.69058033     0.06300
H1840       H  0.35057250  0.36108618  0.70282753     0.07200
C1841       C  0.22120134  0.37654142  0.74164035    -0.22400
C1842       C  0.19869557  0.37108260  0.75774936     0.09500
C1843       C  0.19547944  0.34530782  0.76925333     0.10000
C1844       C  0.21558693  0.32581549  0.76535820    -0.17300
C1845       C  0.23887024  0.33147961  0.75015379    -0.27800
C1846       C  0.24134037  0.35708262  0.73755386     0.18300
C1847       C  0.17931632  0.39316768  0.76283887     0.12300
C1848       C  0.17100889  0.33852701  0.78585611    -0.12100
H1849       H  0.21338786  0.30623764  0.77488079     0.12500
C1850       C  0.26462305  0.36398116  0.71927859    -0.22900
H1851       H  0.22316087  0.39635507  0.73254887     0.08200
C1852       C  0.18369726  0.41193328  0.78382538     0.04500
C1853       C  0.16676537  0.43451078  0.78595743    -0.20200
C1854       C  0.14545633  0.43852982  0.76772144    -0.12500
C1855       C  0.14055976  0.41921846  0.74724857     0.13200
C1856       C  0.15759403  0.39669052  0.74508045    -0.22900
C1857       C  0.20662704  0.40839390  0.80352161    -0.06000
H1858       H  0.17050226  0.44941551  0.80155520     0.14800
C1859       C  0.11843948  0.42310393  0.72672016    -0.16100
H1860       H  0.15454326  0.38221502  0.72894295     0.09100
H1861       H  0.26189633  0.38398819  0.70951191     0.06900
H1862       H  0.26633380  0.34862989  0.70302373     0.08100
H1863       H  0.28365447  0.36488323  0.73102376     0.07200
H1864       H  0.15256139  0.34104499  0.77338497     0.02100
H1865       H  0.16985301  0.35214066  0.80361264     0.02500
H1866       H  0.17158561  0.31737696  0.79329431     0.06000
H1867       H  0.20717784  0.42486154  0.81873107     0.05000
H1868       H  0.22610843  0.40841458  0.79255503    -0.00700
H1869       H  0.20437838  0.38893620  0.81440971     0.00700
H1870       H  0.11822254  0.40666477  0.71146973     0.04400
H1871       H  0.12139140  0.44253051  0.71592587     0.06300
H1872       H  0.09855963  0.42320572  0.73692208     0.07200
C1873       C  0.36552941  0.09346122  0.58734652    -0.22400
C1874       C  0.34103797  0.09088665  0.60113497     0.09500
C1875       C  0.32160658  0.07217995  0.59211674     0.10000
C1876       C  0.32663378  0.05723057  0.56862811    -0.17300
C1877       C  0.35052370  0.06084327  0.55397496    -0.27800
C1878       C  0.37059898  0.07847147  0.56388021     0.18300
C1879       C  0.33542390  0.10952015  0.62367383     0.12300
C1880       C  0.29555262  0.06824244  0.60715143    -0.12100
H1881       H  0.31147600  0.04333883  0.56113948     0.12500
C1882       C  0.39749735  0.08105304  0.55014239    -0.22900
H1883       H  0.38045465  0.10768411  0.59468705     0.08200
C1884       C  0.34680211  0.10577745  0.64947580     0.04500
C1885       C  0.34254472  0.12536855  0.66942953    -0.20200
C1886       C  0.32747314  0.14877222  0.66397375    -0.12500
C1887       C  0.31494541  0.15176845  0.63834397     0.13200
C1888       C  0.31921296  0.13205508  0.61853306    -0.22900
C1889       C  0.36363429  0.08129651  0.65580462    -0.06000
H1890       H  0.35198491  0.12289923  0.68903928     0.14800
C1891       C  0.29674807  0.17528849  0.63167500    -0.16100
H1892       H  0.31033575  0.13446855  0.59864704     0.09100
H1893       H  0.41118269  0.09492752  0.56124751     0.06900
H1894       H  0.39483574  0.08910956  0.52950114     0.08100
H1895       H  0.40731425  0.06095224  0.54902527     0.07200
H1896       H  0.28395394  0.08738724  0.60745830     0.02100
H1897       H  0.29990485  0.06189905  0.62822261     0.02500
H1898       H  0.28276453  0.05250962  0.59757397     0.06000
H1899       H  0.37055372  0.08125928  0.67714281     0.05000
H1900       H  0.38169181  0.08091135  0.64263819    -0.00700
H1901       H  0.35157991  0.06273124  0.65232531     0.00700
H1902       H  0.28687554  0.17275204  0.61167593     0.04400
H1903       H  0.30847362  0.19432451  0.63079415     0.06300
H1904       H  0.28062316  0.17701110  0.64708994     0.07200
C1905       C  0.36372061  0.10332123  0.42689283    -0.22400
C1906       C  0.34488249  0.09533849  0.40738429     0.09500
C1907       C  0.33048609  0.07106169  0.41088733     0.10000
C1908       C  0.33437135  0.05591023  0.43456218    -0.17300
C1909       C  0.35228661  0.06452341  0.45486913    -0.27800
C1910       C  0.36761499  0.08829217  0.45061451     0.18300
C1911       C  0.33997269  0.11341256  0.38401964     0.12300
C1912       C  0.31071887  0.06144250  0.38987759    -0.12100
H1913       H  0.32275079  0.03762842  0.43755855     0.12500
C1914       C  0.38828992  0.09790618  0.47070065    -0.22900
H1915       H  0.37499568  0.12180538  0.42375792     0.08200
C1916       C  0.32394788  0.13676710  0.38661313     0.04500
C1917       C  0.32122459  0.15434570  0.36454666    -0.20200
C1918       C  0.33409083  0.14914217  0.33980219    -0.12500
C1919       C  0.34985789  0.12534286  0.33717483     0.13200
C1920       C  0.35254345  0.10783142  0.35937209    -0.22900
C1921       C  0.30974380  0.14312039  0.41271958    -0.06000
H1922       H  0.30902478  0.17236038  0.36669300     0.14800
C1923       C  0.36493038  0.11872291  0.31159557    -0.16100
H1924       H  0.36493265  0.08989420  0.35770386     0.09100
H1925       H  0.37801960  0.10490990  0.48924726     0.06900
H1926       H  0.40015619  0.11518647  0.46277661     0.08100
H1927       H  0.40257706  0.08133473  0.47552329     0.07200
H1928       H  0.32134069  0.05796607  0.37048389     0.02100
H1929       H  0.29477856  0.07686815  0.38683766     0.02500
H1930       H  0.30088586  0.04223163  0.39592705     0.06000
H1931       H  0.29769437  0.16195130  0.41122425     0.05000
H1932       H  0.32471305  0.14579054  0.42919081    -0.00700
H1933       H  0.29590713  0.12632475  0.41801316     0.00700
H1934       H  0.37752812  0.10033352  0.31390324     0.04400
H1935       H  0.37850226  0.13569368  0.30615519     0.06300
H1936       H  0.35050700  0.11484413  0.29488582     0.07200
C1937       C  0.49918854  0.24498900  0.59560509    -0.22400
C1938       C  0.47514234  0.23017762  0.59651060     0.09500
C1939       C  0.46739734  0.21445577  0.57408255     0.10000
C1940       C  0.48376117  0.21408848  0.55106970    -0.17300
C1941       C  0.50764770  0.22927033  0.54970604    -0.27800
C1942       C  0.51560575  0.24478247  0.57245431     0.18300
C1943       C  0.45708535  0.23304250  0.62011721     0.12300
C1944       C  0.44154187  0.19848367  0.57423686    -0.12100
H1945       H  0.47768497  0.20199549  0.53388896     0.12500
C1946       C  0.54055540  0.26212638  0.57212517    -0.22900
H1947       H  0.50476242  0.25724429  0.61287328     0.08200
C1948       C  0.45841059  0.21537276  0.64243374     0.04500
C1949       C  0.43915481  0.21766675  0.66310888    -0.20200
C1950       C  0.41855674  0.23708578  0.66169113    -0.12500
C1951       C  0.41791407  0.25536321  0.63973988     0.13200
C1952       C  0.43723052  0.25309710  0.61924892    -0.22900
C1953       C  0.47994184  0.19403025  0.64420308    -0.06000
H1954       H  0.43974833  0.20383758  0.68007209     0.14800
C1955       C  0.39726761  0.27765490  0.63808120    -0.16100
H1956       H  0.43655907  0.26670470  0.60211337     0.09100
H1957       H  0.55874762  0.24926789  0.57021898     0.06900
H1958       H  0.54270387  0.27403414  0.59101664     0.08100
H1959       H  0.53957516  0.27652999  0.55496653     0.07200
H1960       H  0.42415922  0.21229297  0.57701854     0.02100
H1961       H  0.44190763  0.18359882  0.59098240     0.02500
H1962       H  0.43849270  0.18729996  0.55502852     0.06000
H1963       H  0.47809383  0.18184997  0.66294317     0.05000
H1964       H  0.50010969  0.20373315  0.64415597    -0.00700
H1965       H  0.47839566  0.18015764  0.62666735     0.00700
H1966       H  0.40088668  0.29110564  0.62051662     0.04400
H1967       H  0.39811941  0.29018917  0.65666383     0.06300
H1968       H  0.37677755  0.26902246  0.63574044     0.07200
C1969       C  0.46686090  0.21550429  0.42320793    -0.22400
C1970       C  0.47406418  0.23391781  0.40305056     0.09500
C1971       C  0.49767690  0.24948336  0.40605697     0.10000
C1972       C  0.51324878  0.24678558  0.42967996    -0.17300
C1973       C  0.50544533  0.22915726  0.45050960    -0.27800
C1974       C  0.48220595  0.21287501  0.44689842     0.18300
C1975       C  0.45600624  0.23688512  0.37935399     0.12300
C1976       C  0.50626394  0.26898023  0.38439276    -0.12100
H1977       H  0.53114728  0.25907622  0.43223812     0.12500
C1978       C  0.47369636  0.19223866  0.46755912    -0.22900
H1979       H  0.44885576  0.20339064  0.42049851     0.08200
C1980       C  0.45697732  0.21871883  0.35746904     0.04500
C1981       C  0.43805895  0.22111412  0.33646035    -0.20200
C1982       C  0.41799319  0.24108789  0.33706619    -0.12500
C1983       C  0.41783107  0.26002191  0.35849730     0.13200
C1984       C  0.43667294  0.25746976  0.37951002    -0.22900
C1985       C  0.47774015  0.19661656  0.35656235    -0.06000
H1986       H  0.43833662  0.20673636  0.31995729     0.14800
C1987       C  0.39860280  0.28348679  0.35962717    -0.16100
H1988       H  0.43621103  0.27158362  0.39624546     0.09100
H1989       H  0.49078093  0.17852266  0.47220041     0.06900
H1990       H  0.45664286  0.17969180  0.46019203     0.08100
H1991       H  0.46688662  0.20246444  0.48622451     0.07200
H1992       H  0.49045584  0.28455500  0.38142532     0.02100
H1993       H  0.50938247  0.25796472  0.36512576     0.02500
H1994       H  0.52537159  0.27937696  0.38974949     0.06000
H1995       H  0.47595409  0.18446549  0.33785421     0.05000
H1996       H  0.47511399  0.18290853  0.37409344    -0.00700
H1997       H  0.49825423  0.20553054  0.35720433     0.00700
H1998       H  0.38541299  0.28133663  0.37757550     0.04400
H1999       H  0.38587857  0.28527080  0.34132087     0.06300
H2000       H  0.41016358  0.30260258  0.36142625     0.07200
C2001       C  0.46294590  0.63391368  0.26224325    -0.22400
C2002       C  0.46261017  0.61537770  0.24084297     0.09500
C2003       C  0.44002635  0.61443454  0.22342553     0.10000
C2004       C  0.41846245  0.63230240  0.22766568    -0.17300
C2005       C  0.41920290  0.65142866  0.24856038    -0.27800
C2006       C  0.44160970  0.65199650  0.26633748     0.18300
C2007       C  0.48622017  0.59729507  0.23710027     0.12300
C2008       C  0.43914103  0.59542491  0.19969484    -0.12100
H2009       H  0.40146523  0.63215667  0.21386575     0.12500
C2010       C  0.44359492  0.67103025  0.29006964    -0.22900
H2011       H  0.48008395  0.63431133  0.27586325     0.08200
C2012       C  0.51137131  0.60734952  0.22853504     0.04500
C2013       C  0.53325321  0.58959611  0.22607567    -0.20200
C2014       C  0.53080940  0.56177789  0.23167850    -0.12500
C2015       C  0.50525201  0.55171388  0.23985097     0.13200
C2016       C  0.48348332  0.56969674  0.24266772    -0.22900
C2017       C  0.51508954  0.63673783  0.22148052    -0.06000
H2018       H  0.55245720  0.59765963  0.21954573     0.14800
C2019       C  0.50053404  0.52234104  0.24625475    -0.16100
H2020       H  0.46411240  0.56222446  0.24943663     0.09100
H2021       H  0.46068791  0.68516343  0.28697882     0.06900
H2022       H  0.44725682  0.65926523  0.30880556     0.08100
H2023       H  0.42502391  0.68293635  0.29343692     0.07200
H2024       H  0.43974626  0.57420742  0.20681320     0.02100
H2025       H  0.45665105  0.59927469  0.18631892     0.02500
H2026       H  0.42047144  0.59807348  0.18756976     0.06000
H2027       H  0.53581208  0.64099208  0.21420028     0.05000
H2028       H  0.51150752  0.64954120  0.23948899    -0.00700
H2029       H  0.50072985  0.64250143  0.20524853     0.00700
H2030       H  0.51438626  0.51573278  0.26259729     0.04400
H2031       H  0.50369148  0.50990044  0.22789463     0.06300
H2032       H  0.47960745  0.51856754  0.25321083     0.07200
C2033       C  0.48642602  0.74511502  0.08031603    -0.22400
C2034       C  0.48416311  0.72753028  0.10234522     0.09500
C2035       C  0.50507310  0.70908820  0.10789563     0.10000
C2036       C  0.52801233  0.70892068  0.09143038    -0.17300
C2037       C  0.53084646  0.72710989  0.06983373    -0.27800
C2038       C  0.50974294  0.74567642  0.06433220     0.18300
C2039       C  0.46123382  0.73083552  0.12113026     0.12300
C2040       C  0.50357370  0.69020952  0.13171680    -0.12100
H2041       H  0.54404675  0.69469036  0.09568824     0.12500
C2042       C  0.51150893  0.76762154  0.04328053    -0.22900
H2043       H  0.47044133  0.75955271  0.07648815     0.08200
C2044       C  0.46096893  0.75212483  0.14004153     0.04500
C2045       C  0.43976400  0.75389908  0.15852346    -0.20200
C2046       C  0.41893703  0.73482487  0.15881146    -0.12500
C2047       C  0.41933619  0.71320063  0.14006457     0.13200
C2048       C  0.44034959  0.71175700  0.12115225    -0.22900
C2049       C  0.48345139  0.77255908  0.14123704    -0.06000
H2050       H  0.43952298  0.77017520  0.17302535     0.14800
C2051       C  0.39898240  0.69055675  0.14027937    -0.16100
H2052       H  0.44091443  0.69517680  0.10686918     0.09100
H2053       H  0.50790862  0.78750533  0.05299479     0.06900
H2054       H  0.49580667  0.76431460  0.02762280     0.08100
H2055       H  0.53134635  0.76899389  0.03332126     0.07200
H2056       H  0.48593858  0.67660347  0.12950494     0.02100
H2057       H  0.50152822  0.70202756  0.15065643     0.02500
H2058       H  0.52191735  0.67748691  0.13346642     0.06000
H2059       H  0.48038413  0.78743332  0.15771580     0.05000
H2060       H  0.48453774  0.78383974  0.12191417    -0.00700
H2061       H  0.50291939  0.76213113  0.14489779     0.00700
H2062       H  0.38789392  0.69021243  0.12078565     0.04400
H2063       H  0.38414326  0.69213716  0.15684369     0.06300
H2064       H  0.40960042  0.67099144  0.14288150     0.07200
C2065       C  0.45864045  0.76916581  0.35992072    -0.22400
C2066       C  0.45553396  0.75328429  0.38311824     0.09500
C2067       C  0.43512268  0.73351787  0.38407844     0.10000
C2068       C  0.41812279  0.73007412  0.36173147    -0.17300
C2069       C  0.42098710  0.74599870  0.33847488    -0.27800
C2070       C  0.44152831  0.76585522  0.33751575     0.18300
C2071       C  0.47370550  0.75771647  0.40639704     0.12300
C2072       C  0.43107105  0.71632139  0.40883692    -0.12100
H2073       H  0.40220879  0.71509623  0.36253856     0.12500
C2074       C  0.44469741  0.78444182  0.31360220    -0.22900
H2075       H  0.47429893  0.78442229  0.35954268     0.08200
C2076       C  0.49821423  0.74359165  0.40883239     0.04500
C2077       C  0.51407398  0.74719941  0.43202521    -0.20200
C2078       C  0.50577844  0.76432895  0.45302518    -0.12500
C2079       C  0.48136926  0.77896883  0.45022651     0.13200
C2080       C  0.46571283  0.77552808  0.42681527    -0.22900
C2081       C  0.50737231  0.72442381  0.38710540    -0.06000
H2082       H  0.53268106  0.73593827  0.43411997     0.14800
C2083       C  0.47187135  0.79856993  0.47145765    -0.16100
H2084       H  0.44686502  0.78637332  0.42459286     0.09100
H2085       H  0.45006441  0.77262192  0.29536164     0.06900
H2086       H  0.46087953  0.79958427  0.31695196     0.08100
H2087       H  0.42560416  0.79554516  0.30993032     0.07200
H2088       H  0.42641234  0.72937894  0.42643502     0.02100
H2089       H  0.44963666  0.70459600  0.41314778     0.02500
H2090       H  0.41418320  0.70183414  0.40618522     0.06000
H2091       H  0.52695065  0.71485161  0.39225751     0.05000
H2092       H  0.50981192  0.73553079  0.36779397    -0.00700
H2093       H  0.49222352  0.70816380  0.38432491     0.00700
H2094       H  0.45354761  0.80965053  0.46486263     0.04400
H2095       H  0.48787582  0.81366821  0.47567659     0.06300
H2096       H  0.46665700  0.78760895  0.49025092     0.07200
C2097       C  0.35950389  0.84701495  0.38204016    -0.22400
C2098       C  0.34243963  0.86951300  0.38167015     0.09500
C2099       C  0.32573465  0.87422920  0.35910877     0.10000
C2100       C  0.32540398  0.85547147  0.33788080    -0.17300
C2101       C  0.34148782  0.83217804  0.33875487    -0.27800
C2102       C  0.35977790  0.82860373  0.36054129     0.18300
C2103       C  0.34194908  0.88754311  0.40544663     0.12300
C2104       C  0.30778710  0.89869426  0.35782901    -0.12100
H2105       H  0.31179047  0.85850242  0.32100017     0.12500
C2106       C  0.38050741  0.80634511  0.36137349    -0.22900
H2107       H  0.37283315  0.84392405  0.39915407     0.08200
C2108       C  0.32560261  0.88163315  0.42789203     0.04500
C2109       C  0.32632868  0.89874425  0.45036930    -0.20200
C2110       C  0.34302904  0.92168741  0.45101633    -0.12500
C2111       C  0.35889987  0.92797099  0.42812093     0.13200
C2112       C  0.35820125  0.91067465  0.40561970    -0.22900
C2113       C  0.30755562  0.85715640  0.42819169    -0.06000
H2114       H  0.31396025  0.89395915  0.46774465     0.14800
C2115       C  0.37733908  0.95212456  0.42755425    -0.16100
H2116       H  0.37059783  0.91499408  0.38815212     0.09100
H2117       H  0.37589147  0.79219690  0.37812467     0.06900
H2118       H  0.40080210  0.81517845  0.36483542     0.08100
H2119       H  0.38169450  0.79492417  0.34222663     0.07200
H2120       H  0.32023016  0.91729339  0.35890878     0.02100
H2121       H  0.29347924  0.89845087  0.37502455     0.02500
H2122       H  0.29592738  0.89931513  0.33879031     0.06000
H2123       H  0.29592993  0.85565937  0.44727795     0.05000
H2124       H  0.31986455  0.83857032  0.42613157    -0.00700
H2125       H  0.29299468  0.85826797  0.41117715     0.00700
H2126       H  0.39180583  0.95108237  0.44465931     0.04400
H2127       H  0.36533138  0.97096381  0.42894737     0.06300
H2128       H  0.38912925  0.95307655  0.40854003     0.07200
C2129       C  0.19705335  0.63230315  0.24221649    -0.22400
C2130       C  0.20121334  0.61174746  0.26119263     0.09500
C2131       C  0.22392000  0.61281305  0.27836745     0.10000
C2132       C  0.24236577  0.63414085  0.27570817    -0.17300
C2133       C  0.23872456  0.65441078  0.25619478    -0.27800
C2134       C  0.21553640  0.65364452  0.23947827     0.18300
C2135       C  0.18343216  0.58769674  0.26061429     0.12300
C2136       C  0.22905166  0.59104044  0.29900062    -0.12100
H2137       H  0.25997049  0.63480395  0.28869812     0.12500
C2138       C  0.21106797  0.67420354  0.21758553    -0.22900
H2139       H  0.17974297  0.63109672  0.22887681     0.08200
C2140       C  0.16043517  0.58540322  0.27712087     0.04500
C2141       C  0.14554559  0.56124279  0.27689802    -0.20200
C2142       C  0.15322916  0.53931374  0.26061407    -0.12500
C2143       C  0.17569722  0.54222299  0.24317021     0.13200
C2144       C  0.19043068  0.56640045  0.24344388    -0.22900
C2145       C  0.15173533  0.60836287  0.29499630    -0.06000
H2146       H  0.12824086  0.55921745  0.29005273     0.14800
C2147       C  0.18402141  0.52033755  0.22371801    -0.16100
H2148       H  0.20788893  0.56860129  0.23050331     0.09100
H2149       H  0.20846860  0.69456597  0.22653098     0.06900
H2150       H  0.19275380  0.66968228  0.20547058     0.08100
H2151       H  0.22865212  0.67416410  0.20377489     0.07200
H2152       H  0.23124689  0.57123767  0.28875044     0.02100
H2153       H  0.21196402  0.58998179  0.31336922     0.02500
H2154       H  0.24772985  0.59494034  0.31077716     0.06000
H2155       H  0.13334290  0.60321864  0.30665713     0.05000
H2156       H  0.14727354  0.62638327  0.28243263    -0.00700
H2157       H  0.16800152  0.61339686  0.30955576     0.00700
H2158       H  0.20040573  0.52718831  0.21008813     0.04400
H2159       H  0.16658699  0.51440412  0.21093966     0.06300
H2160       H  0.19170463  0.50252430  0.23488278     0.07200
C2161       C  0.19356160  0.41336421  0.27478711    -0.22400
C2162       C  0.18329746  0.39206056  0.25929587     0.09500
C2163       C  0.15732011  0.39414341  0.24791936     0.10000
C2164       C  0.14261510  0.41814307  0.25127900    -0.17300
C2165       C  0.15354539  0.44023843  0.26537417    -0.27800
C2166       C  0.17914987  0.43751000  0.27788601     0.18300
C2167       C  0.20091206  0.36848840  0.25413031     0.12300
C2168       C  0.14554402  0.37138269  0.23155315    -0.12100
H2169       H  0.12292762  0.42002274  0.24195272     0.12500
C2170       C  0.19135931  0.45965058  0.29488972    -0.22900
H2171       H  0.21337638  0.41131917  0.28383084     0.08200
C2172       C  0.22249122  0.37023350  0.23573361     0.04500
C2173       C  0.24016860  0.34834089  0.23303423    -0.20200
C2174       C  0.23663093  0.32456031  0.24809494    -0.12500
C2175       C  0.21419884  0.32241492  0.26568223     0.13200
C2176       C  0.19674317  0.34455781  0.26859151    -0.22900
C2177       C  0.22685871  0.39525690  0.21899584    -0.06000
H2178       H  0.25707444  0.34992533  0.21929755     0.14800
C2179       C  0.20910308  0.29743460  0.28233259    -0.16100
H2180       H  0.18004590  0.34344701  0.28261657     0.09100
H2181       H  0.19671179  0.47720930  0.28209127     0.06900
H2182       H  0.21014254  0.45290334  0.30508822     0.08100
H2183       H  0.17690906  0.46594089  0.31077239     0.07200
H2184       H  0.14376499  0.35303244  0.24428852     0.02100
H2185       H  0.15879109  0.36696095  0.21406563     0.02500
H2186       H  0.12517595  0.37644580  0.22372855     0.06000
H2187       H  0.24432252  0.39304404  0.20525610     0.05000
H2188       H  0.23079878  0.41283741  0.23231165    -0.00700
H2189       H  0.20868276  0.39930419  0.20652097     0.00700
H2190       H  0.19146499  0.29991497  0.29587077     0.04400
H2191       H  0.22694314  0.29295753  0.29514077     0.06300
H2192       H  0.20482983  0.28002117  0.26888199     0.07200
C2193       C  0.34801262  0.60904403  0.35557520    -0.22400
C2194       C  0.32963698  0.61085201  0.37690716     0.09500
C2195       C  0.31446120  0.63454336  0.38057438     0.10000
C2196       C  0.31743199  0.65575846  0.36212141    -0.17300
C2197       C  0.33457305  0.65340953  0.33974692    -0.27800
C2198       C  0.35096394  0.63017954  0.33706070     0.18300
C2199       C  0.32632985  0.58726960  0.39469562     0.12300
C2200       C  0.29459677  0.63699732  0.40339054    -0.12100
H2201       H  0.30566285  0.67387932  0.36463037     0.12500
C2202       C  0.37232390  0.62728097  0.31561719    -0.22900
H2203       H  0.36007158  0.59093117  0.35333055     0.08200
C2204       C  0.31031546  0.56521040  0.38670215     0.04500
C2205       C  0.31001183  0.54196971  0.40272097    -0.20200
C2206       C  0.32523100  0.54033578  0.42663603    -0.12500
C2207       C  0.34018834  0.56313744  0.43534542     0.13200
C2208       C  0.34061786  0.58633614  0.41907746    -0.22900
C2209       C  0.29380218  0.56613490  0.36112365    -0.06000
H2210       H  0.29811254  0.52476982  0.39628111     0.14800
C2211       C  0.35669443  0.56290300  0.46092893    -0.16100
H2212       H  0.35268140  0.60361061  0.42499516     0.09100
H2213       H  0.36689373  0.61052391  0.30174512     0.06900
H2214       H  0.39195087  0.62256784  0.32534356     0.08100
H2215       H  0.37543502  0.64590466  0.30367012     0.07200
H2216       H  0.30523322  0.63493531  0.42302263     0.02100
H2217       H  0.27912748  0.62088692  0.40165820     0.02500
H2218       H  0.28414165  0.65679948  0.40318431     0.06000
H2219       H  0.28211296  0.54725132  0.35807161     0.05000
H2220       H  0.30720139  0.56888839  0.34342462    -0.00700
H2221       H  0.27935665  0.58321635  0.36207897     0.00700
H2222       H  0.36801499  0.58205325  0.46372179     0.04400
H2223       H  0.37151219  0.54613624  0.46030488     0.06300
H2224       H  0.34330767  0.56046038  0.47865235     0.07200
C2225       C  0.30940666  0.39694736  0.41017989    -0.22400
C2226       C  0.32521401  0.39651408  0.38684193     0.09500
C2227       C  0.34152197  0.41882853  0.38027431     0.10000
C2228       C  0.34170829  0.44129236  0.39744243    -0.17300
C2229       C  0.32605632  0.44178344  0.42104394    -0.27800
C2230       C  0.30953445  0.41937136  0.42742008     0.18300
C2231       C  0.32368692  0.37274940  0.36907420     0.12300
C2232       C  0.35874022  0.41881613  0.35524586    -0.12100
H2233       H  0.35422695  0.45852470  0.39248295     0.12500
C2234       C  0.29108360  0.41936110  0.45155918    -0.22900
H2235       H  0.29670555  0.37972800  0.41470949     0.08200
C2236       C  0.33841913  0.34911405  0.37469489     0.04500
C2237       C  0.33656166  0.32725873  0.35688252    -0.20200
C2238       C  0.32079058  0.32879504  0.33337698    -0.12500
C2239       C  0.30476324  0.35200973  0.32868717     0.13200
C2240       C  0.30682926  0.37389641  0.34642179    -0.22900
C2241       C  0.35669327  0.34731959  0.39896322    -0.06000
H2242       H  0.34818306  0.30925306  0.36084964     0.14800
C2243       C  0.28456217  0.35410029  0.30595461    -0.16100
H2244       H  0.29499653  0.39193225  0.34273312     0.09100
H2245       H  0.27828741  0.40097249  0.45218839     0.06900
H2246       H  0.27753017  0.43717465  0.45070856     0.08100
H2247       H  0.30306660  0.41983841  0.47048696     0.07200
H2248       H  0.34582066  0.41669138  0.33704012     0.02100
H2249       H  0.37316066  0.40170276  0.35606558     0.02500
H2250       H  0.37046245  0.43781119  0.35324791     0.06000
H2251       H  0.36703029  0.32746922  0.40013297     0.05000
H2252       H  0.34480224  0.35004002  0.41771816    -0.00700
H2253       H  0.37233342  0.36330809  0.39781203     0.00700
H2254       H  0.26473965  0.36045209  0.31414447     0.04400
H2255       H  0.28105342  0.33465644  0.29553765     0.06300
H2256       H  0.29141427  0.36938253  0.29107468     0.07200
C2257       C  0.19236417  0.22709482  0.35194414    -0.22400
C2258       C  0.19642979  0.24252164  0.37526111     0.09500
C2259       C  0.22140876  0.25534489  0.37957498     0.10000
C2260       C  0.24172466  0.25287833  0.36002359    -0.17300
C2261       C  0.23747374  0.23811157  0.33611070    -0.27800
C2262       C  0.21239801  0.22479922  0.33218375     0.18300
C2263       C  0.17370923  0.24526959  0.39436054     0.12300
C2264       C  0.22636236  0.27202480  0.40450840    -0.12100
H2265       H  0.26078039  0.26312562  0.36313035     0.12500
C2266       C  0.20651128  0.20770894  0.30760917    -0.22900
H2267       H  0.17310756  0.21714885  0.34903326     0.08200
C2268       C  0.15170959  0.26227474  0.38844589     0.04500
C2269       C  0.12901868  0.26176060  0.40522249    -0.20200
C2270       C  0.12777446  0.24466975  0.42781833    -0.12500
C2271       C  0.15017320  0.22798573  0.43405942     0.13200
C2272       C  0.17296713  0.22876556  0.41731683    -0.22900
C2273       C  0.15216335  0.28086374  0.36434800    -0.06000
H2274       H  0.11195969  0.27460280  0.40050315     0.14800
C2275       C  0.15040214  0.20792374  0.45697516    -0.16100
H2276       H  0.18985181  0.21551464  0.42152614     0.09100
H2277       H  0.20542318  0.22055957  0.28928762     0.06900
H2278       H  0.18685671  0.19711557  0.30930123     0.08100
H2279       H  0.22239066  0.19212071  0.30514801     0.07200
H2280       H  0.22430327  0.25918630  0.42276051     0.02100
H2281       H  0.21148183  0.28872431  0.40547913     0.02500
H2282       H  0.24688435  0.28097579  0.40460309     0.06000
H2283       H  0.13350505  0.29315909  0.36294042     0.05000
H2284       H  0.15396391  0.26895205  0.34546054    -0.00700
H2285       H  0.16958628  0.29484033  0.36598450     0.00700
H2286       H  0.15468480  0.18746027  0.44889463     0.04400
H2287       H  0.13108545  0.20658800  0.46793843     0.06300
H2288       H  0.16649029  0.21341774  0.47159276     0.07200
C2289       C  0.00289638  0.22081356  0.38947833    -0.22400
C2290       C  0.98043581  0.23563526  0.39782883     0.09500
C2291       C  0.98161791  0.25043209  0.42212482     0.10000
C2292       C  0.00591675  0.25131900  0.43679096    -0.17300
C2293       C  0.02907523  0.23773211  0.42764692    -0.27800
C2294       C  0.02718791  0.22156025  0.40402327     0.18300
C2295       C  0.95702360  0.23738321  0.37925504     0.12300
C2296       C  0.95729724  0.26541258  0.43235140    -0.12100
H2297       H  0.00700969  0.26329538  0.45507763     0.12500
C2298       C  0.05037413  0.20460175  0.39408011    -0.22900
H2299       H  0.00161703  0.20925009  0.37092738     0.08200
C2300       C  0.95592195  0.25768591  0.35930098     0.04500
C2301       C  0.93479568  0.25761875  0.34049676    -0.20200
C2302       C  0.91458028  0.23784044  0.34120090    -0.12500
C2303       C  0.91536245  0.21770539  0.36150222     0.13200
C2304       C  0.93677173  0.21763558  0.38023421    -0.22900
C2305       C  0.97737822  0.27915272  0.35751982    -0.06000
H2306       H  0.93410871  0.27306142  0.32498655     0.14800
C2307       C  0.89429581  0.19581667  0.36293602    -0.16100
H2308       H  0.93795478  0.20196203  0.39546449     0.09100
H2309       H  0.06689491  0.21770772  0.38666077     0.06900
H2310       H  0.04428693  0.19136734  0.37701639     0.08100
H2311       H  0.05783198  0.19141997  0.41062445     0.07200
H2312       H  0.94057208  0.25093986  0.43582585     0.02100
H2313       H  0.95074601  0.28068398  0.41731735     0.02500
H2314       H  0.96158413  0.27598204  0.45167005     0.06000
H2315       H  0.97346665  0.29345090  0.34068281     0.05000
H2316       H  0.99731639  0.26962783  0.35407889    -0.00700
H2317       H  0.97806806  0.29091199  0.37657904     0.00700
H2318       H  0.89878183  0.18102897  0.37920111     0.04400
H2319       H  0.89335089  0.18469182  0.34352040     0.06300
H2320       H  0.87428777  0.20481749  0.36719168     0.07200
C2321       C  0.22047788  0.10218616  0.26151841    -0.22400
C2322       C  0.19642744  0.10864145  0.24816579     0.09500
C2323       C  0.19382046  0.13355936  0.23480440     0.10000
C2324       C  0.21539142  0.15167595  0.23524553    -0.17300
C2325       C  0.23971382  0.14548017  0.24848586    -0.27800
C2326       C  0.24221330  0.12036628  0.26202343     0.18300
C2327       C  0.17314513  0.09037843  0.25078576     0.12300
C2328       C  0.16811495  0.14116179  0.22040521    -0.12100
H2329       H  0.21300983  0.17105362  0.22551862     0.12500
C2330       C  0.26685779  0.11318140  0.27836715    -0.22900
H2331       H  0.22189600  0.08315212  0.27223056     0.08200
C2332       C  0.16915531  0.06833649  0.23324727     0.04500
C2333       C  0.14593408  0.05245515  0.23613312    -0.20200
C2334       C  0.12653895  0.05860077  0.25579332    -0.12500
C2335       C  0.13096057  0.08040192  0.27373292     0.13200
C2336       C  0.15421584  0.09605798  0.27088128    -0.22900
C2337       C  0.18892955  0.06217663  0.21107692    -0.06000
H2338       H  0.14235757  0.03586237  0.22230191     0.14800
C2339       C  0.11199078  0.08751332  0.29638927    -0.16100
H2340       H  0.15757014  0.11301084  0.28434500     0.09100
H2341       H  0.28461243  0.11115949  0.26495848     0.06900
H2342       H  0.26432720  0.09367477  0.28913500     0.08100
H2343       H  0.27070635  0.12903464  0.29376933     0.07200
H2344       H  0.15110727  0.14149805  0.23490844     0.02100
H2345       H  0.16376162  0.12623801  0.20424962     0.02500
H2346       H  0.16947438  0.16143995  0.21097233     0.06000
H2347       H  0.18258003  0.04439492  0.19896226     0.05000
H2348       H  0.20902746  0.05783338  0.21993462    -0.00700
H2349       H  0.19056430  0.07977617  0.19728853     0.00700
H2350       H  0.12332206  0.08809514  0.31574759     0.04400
H2351       H  0.09546906  0.07272592  0.29897877     0.06300
H2352       H  0.10311015  0.10773945  0.29261387     0.07200
C2353       C  0.98083132  0.06884602  0.25879892    -0.22400
C2354       C  0.98355546  0.09502490  0.24845580     0.09500
C2355       C  0.00838964  0.10341642  0.23771542     0.10000
C2356       C  0.03040857  0.08583118  0.23866557    -0.17300
C2357       C  0.02829990  0.05975386  0.24983613    -0.27800
C2358       C  0.00282115  0.05090225  0.25939984     0.18300
C2359       C  0.96047910  0.11383592  0.24957486     0.12300
C2360       C  0.01163776  0.13098771  0.22522491    -0.12100
H2361       H  0.04952734  0.09268945  0.23066969     0.12500
C2362       C  0.99858026  0.02305573  0.27084234    -0.22900
H2363       H  0.96145518  0.06258609  0.26668724     0.08200
C2364       C  0.94076199  0.11438312  0.22904564     0.04500
C2365       C  0.92051693  0.13408386  0.22989415    -0.20200
C2366       C  0.91983863  0.15336328  0.25062661    -0.12500
C2367       C  0.93925693  0.15244083  0.27153568     0.13200
C2368       C  0.95937942  0.13258556  0.27075310    -0.22900
C2369       C  0.94139877  0.09450003  0.20606291    -0.06000
H2370       H  0.90546802  0.13483149  0.21399880     0.14800
C2371       C  0.93834877  0.17178629  0.29501886    -0.16100
H2372       H  0.97460337  0.13189058  0.28647508     0.09100
H2373       H  0.00236053  0.00770230  0.25499827     0.06900
H2374       H  0.97760171  0.02012787  0.27804435     0.08100
H2375       H  0.01232912  0.01971501  0.28823302     0.07200
H2376       H  0.00740966  0.14684528  0.24046642     0.02100
H2377       H  0.99739894  0.13324116  0.20804467     0.02500
H2378       H  0.03237066  0.13422933  0.21748007     0.06000
H2379       H  0.92459748  0.09791536  0.19160319     0.05000
H2380       H  0.93961535  0.07365049  0.21407460    -0.00700
H2381       H  0.96066111  0.09647247  0.19488757     0.00700
H2382       H  0.95419553  0.16724715  0.31023091     0.04400
H2383       H  0.91848118  0.17026838  0.30510978     0.06300
H2384       H  0.94150513  0.19278239  0.28790953     0.07200
C2385       C  0.98225938  0.74377736  0.42269313    -0.22400
C2386       C  0.98274728  0.73337972  0.39645536     0.09500
C2387       C  0.00651699  0.72148337  0.38647170     0.10000
C2388       C  0.02990820  0.72188654  0.40239931    -0.17300
C2389       C  0.02992073  0.73321970  0.42844257    -0.27800
C2390       C  0.00535651  0.74343884  0.43909559     0.18300
C2391       C  0.95872005  0.73670429  0.37906910     0.12300
C2392       C  0.00708433  0.70817450  0.35909936    -0.12100
H2393       H  0.04831155  0.71326853  0.39441725     0.12500
C2394       C  0.00316395  0.75479563  0.46727496    -0.22900
H2395       H  0.96375348  0.75263497  0.43017265     0.08200
C2396       C  0.93548220  0.72062242  0.38221657     0.04500
C2397       C  0.91419896  0.72339624  0.36372308    -0.20200
C2398       C  0.91569952  0.74197055  0.34235746    -0.12500
C2399       C  0.93810220  0.75959558  0.34062715     0.13200
C2400       C  0.95951423  0.75639182  0.35877986    -0.22900
C2401       C  0.93355583  0.69993368  0.40440817    -0.06000
H2402       H  0.89685539  0.71017189  0.36522509     0.14800
C2403       C  0.93988556  0.78235282  0.32042754    -0.16100
H2404       H  0.97706692  0.76932768  0.35707644     0.09100
H2405       H  0.98271494  0.76287147  0.47142619     0.06900
H2406       H  0.01775262  0.77156891  0.47000152     0.08100
H2407       H  0.00704599  0.73867482  0.48235643     0.07200
H2408       H  0.00265801  0.72320069  0.34308325     0.02100
H2409       H  0.99174113  0.69186107  0.35831814     0.02500
H2410       H  0.02705787  0.69908447  0.35474214     0.06000
H2411       H  0.91417629  0.68873350  0.40360604     0.05000
H2412       H  0.93491227  0.71002151  0.42437482    -0.00700
H2413       H  0.95023221  0.68513904  0.40247538     0.00700
H2414       H  0.94380519  0.80161190  0.33123739     0.04400
H2415       H  0.92107572  0.78526290  0.30870573     0.06300
H2416       H  0.95672600  0.77851976  0.30621991     0.07200
C2417       C  0.17537148  0.75510794  0.42038966    -0.22400
C2418       C  0.17538694  0.74347165  0.39461933     0.09500
C2419       C  0.15244407  0.72947901  0.38538780     0.10000
C2420       C  0.12954775  0.72818620  0.40178373    -0.17300
C2421       C  0.12909904  0.73996972  0.42761614    -0.27800
C2422       C  0.15261922  0.75332313  0.43722649     0.18300
C2423       C  0.19959726  0.74573704  0.37738598     0.12300
C2424       C  0.15214786  0.71586502  0.35815981    -0.12100
H2425       H  0.11192051  0.71755952  0.39439911     0.12500
C2426       C  0.15394341  0.76624815  0.46476728    -0.22900
H2427       H  0.19328766  0.76556702  0.42732271     0.08200
C2428       C  0.20329708  0.76780556  0.35976057     0.04500
C2429       C  0.22464116  0.76729153  0.34119893    -0.20200
C2430       C  0.24224653  0.74517813  0.33991361    -0.12500
C2431       C  0.23863668  0.72324006  0.35786243     0.13200
C2432       C  0.21755783  0.72399870  0.37661250    -0.22900
C2433       C  0.18432251  0.79150525  0.36012869    -0.06000
H2434       H  0.22739324  0.78402177  0.32735380     0.14800
C2435       C  0.25560778  0.69810938  0.35703321    -0.16100
H2436       H  0.21435448  0.70692870  0.38994816     0.09100
H2437       H  0.13749995  0.78127061  0.46693240     0.06900
H2438       H  0.17337326  0.77689355  0.46809815     0.08100
H2439       H  0.15219533  0.75058149  0.48069035     0.07200
H2440       H  0.16798775  0.70006430  0.35745864     0.02100
H2441       H  0.15599814  0.73095820  0.34205383     0.02500
H2442       H  0.13247248  0.70604445  0.35390714     0.06000
H2443       H  0.18999522  0.80697899  0.34492924     0.05000
H2444       H  0.18469514  0.80111449  0.38037952    -0.00700
H2445       H  0.16352079  0.78460008  0.35557446     0.00700
H2446       H  0.26577933  0.69562225  0.37684688     0.04400
H2447       H  0.27105174  0.69845768  0.34095211     0.06300
H2448       H  0.24252689  0.68028994  0.35332840     0.07200
C2449       C  0.95731099  0.84658123  0.22993953    -0.22400
C2450       C  0.95902440  0.86515650  0.25116127     0.09500
C2451       C  0.93849150  0.86620664  0.27079416     0.10000
C2452       C  0.91729331  0.84748338  0.26953203    -0.17300
C2453       C  0.91620667  0.82807998  0.24892000    -0.27800
C2454       C  0.93594613  0.82821236  0.22832979     0.18300
C2455       C  0.98311707  0.88255560  0.25279775     0.12300
C2456       C  0.93899662  0.88702176  0.29297302    -0.12100
H2457       H  0.90193528  0.84748837  0.28506976     0.12500
C2458       C  0.93485082  0.80972778  0.20412887    -0.22900
H2459       H  0.97289105  0.84630393  0.21461976     0.08200
C2460       C  0.00546804  0.87503736  0.26868410     0.04500
C2461       C  0.02825287  0.89168867  0.26911915    -0.20200
C2462       C  0.02962519  0.91526164  0.25337515    -0.12500
C2463       C  0.00743279  0.92225677  0.23669967     0.13200
C2464       C  0.98431279  0.90588727  0.23688291    -0.22900
C2465       C  0.00560527  0.84902369  0.28451471    -0.06000
H2466       H  0.04517996  0.88613340  0.28178492     0.14800
C2467       C  0.00835549  0.94600254  0.21768743    -0.16100
H2468       H  0.96722974  0.91098663  0.22419168     0.09100
H2469       H  0.95263351  0.79614091  0.20422438     0.06900
H2470       H  0.93516436  0.82199150  0.18535694     0.08100
H2471       H  0.91636793  0.79723388  0.20339454     0.07200
H2472       H  0.93869713  0.90755015  0.28398133     0.02100
H2473       H  0.95747807  0.88476969  0.30539403     0.02500
H2474       H  0.92131229  0.88506437  0.30654253     0.06000
H2475       H  0.02492622  0.84603133  0.29547510     0.05000
H2476       H  0.00276132  0.83170549  0.27056066    -0.00700
H2477       H  0.98911771  0.84901412  0.29958139     0.00700
H2478       H  0.99000353  0.94713436  0.20485484     0.04400
H2479       H  0.02603744  0.94415324  0.20411138     0.06300
H2480       H  0.00964850  0.96510887  0.22925190     0.07200
C2481       C  0.20152851  0.85433731  0.23662014    -0.22400
C2482       C  0.20188185  0.87217451  0.25857099     0.09500
C2483       C  0.22352459  0.87149823  0.27706978     0.10000
C2484       C  0.24422092  0.85253409  0.27333824    -0.17300
C2485       C  0.24336385  0.83402048  0.25186026    -0.27800
C2486       C  0.22205867  0.83534834  0.23287360     0.18300
C2487       C  0.17815311  0.88979951  0.26236168     0.12300
C2488       C  0.22436771  0.89012889  0.30108468    -0.12100
H2489       H  0.26060778  0.85143990  0.28782161     0.12500
C2490       C  0.22050505  0.81752510  0.20819387    -0.22900
H2491       H  0.18487639  0.85507757  0.22241225     0.08200
C2492       C  0.17632892  0.91540365  0.25010849     0.04500
C2493       C  0.15157681  0.92915975  0.25031476    -0.20200
C2494       C  0.12842502  0.91759993  0.26195793    -0.12500
C2495       C  0.13079958  0.89231090  0.27531384     0.13200
C2496       C  0.15568650  0.87890175  0.27540238    -0.22900
C2497       C  0.20023766  0.92775779  0.23606848    -0.06000
H2498       H  0.15007987  0.94856044  0.24031103     0.14800
C2499       C  0.10744189  0.87906327  0.28952923    -0.16100
H2500       H  0.15740344  0.85916348  0.28472423     0.09100
H2501       H  0.21926279  0.83033284  0.18982570     0.06900
H2502       H  0.20217403  0.80471784  0.20927088     0.08100
H2503       H  0.23826748  0.80423838  0.20573635     0.07200
H2504       H  0.20642679  0.88663892  0.31396263     0.02100
H2505       H  0.22446805  0.91144315  0.29424955     0.02500
H2506       H  0.24267281  0.88676932  0.31360036     0.06000
H2507       H  0.19528227  0.94775646  0.22722158     0.05000
H2508       H  0.20707389  0.91431984  0.21950921    -0.00700
H2509       H  0.21699056  0.93060266  0.25065308     0.00700
H2510       H  0.11383082  0.86082594  0.30091706     0.04400
H2511       H  0.09218931  0.87241010  0.27454963     0.06300
H2512       H  0.09832147  0.89335053  0.30416255     0.07200
C2513       C  0.15282572  0.71211532  0.61099867    -0.22400
C2514       C  0.17549563  0.72590518  0.60157687     0.09500
C2515       C  0.17468498  0.73909267  0.57641086     0.10000
C2516       C  0.15071918  0.73878800  0.56138292    -0.17300
C2517       C  0.12737226  0.72617566  0.57134378    -0.27800
C2518       C  0.12860619  0.71227311  0.59642773     0.18300
C2519       C  0.19884198  0.72851150  0.61982094     0.12300
C2520       C  0.19888380  0.75406401  0.56584964    -0.12100
H2521       H  0.14995861  0.74938924  0.54224753     0.12500
C2522       C  0.10476867  0.69749434  0.60819621    -0.22900
H2523       H  0.15384657  0.70210333  0.63045173     0.08200
C2524       C  0.19977717  0.74939626  0.63914212     0.04500
C2525       C  0.22148694  0.75062570  0.65713383    -0.20200
C2526       C  0.24205667  0.73128413  0.65640306    -0.12500
C2527       C  0.24107244  0.71021435  0.63714414     0.13200
C2528       C  0.21941351  0.70917514  0.61887851    -0.22900
C2529       C  0.17755825  0.77003723  0.64111753    -0.06000
H2530       H  0.22225402  0.76655125  0.67214301     0.14800
C2531       C  0.26195592  0.68812487  0.63675808    -0.16100
H2532       H  0.21816337  0.69296221  0.60422567     0.09100
H2533       H  0.08889005  0.71206063  0.61417072     0.06900
H2534       H  0.11035242  0.68599693  0.62663909     0.08100
H2535       H  0.09664478  0.68289636  0.59323980     0.07200
H2536       H  0.21606109  0.73989854  0.56363745     0.02100
H2537       H  0.20461159  0.77037703  0.58012320     0.02500
H2538       H  0.19481214  0.76339127  0.54585416     0.06000
H2539       H  0.18153419  0.78501233  0.65733986     0.05000
H2540       H  0.15818381  0.75982694  0.64569165    -0.00700
H2541       H  0.17563258  0.78110273  0.62172256     0.00700
H2542       H  0.25730040  0.67254596  0.62130143     0.04400
H2543       H  0.26269098  0.67804356  0.65676408     0.06300
H2544       H  0.28205796  0.69669438  0.63205813     0.07200
C2545       C  0.95925757  0.71867884  0.64099955    -0.22400
C2546       C  0.95950502  0.73758165  0.61999576     0.09500
C2547       C  0.93814566  0.75608669  0.61719585     0.10000
C2548       C  0.91744997  0.75613170  0.63643206    -0.17300
C2549       C  0.91777847  0.73797789  0.65821367    -0.27800
C2550       C  0.93834887  0.71823137  0.65989077     0.18300
C2551       C  0.98298449  0.73812054  0.60184413     0.12300
C2552       C  0.93750304  0.77593775  0.59417070    -0.12100
H2553       H  0.90134855  0.77083658  0.63488033     0.12500
C2554       C  0.93850467  0.69585712  0.68061148    -0.22900
H2555       H  0.97549931  0.70411809  0.64259845     0.08200
C2556       C  0.00611981  0.75313151  0.60859655     0.04500
C2557       C  0.02891721  0.75124624  0.59216899    -0.20200
C2558       C  0.02914383  0.73472171  0.56911695    -0.12500
C2559       C  0.00557301  0.72008830  0.56201591     0.13200
C2560       C  0.98271163  0.72218146  0.57850819    -0.22900
C2561       C  0.00681662  0.77089241  0.63330743    -0.06000
H2562       H  0.04683272  0.76260893  0.59750248     0.14800
C2563       C  0.00387036  0.70103074  0.53831162    -0.16100
H2564       H  0.96479054  0.71061823  0.57362353     0.09100
H2565       H  0.95618182  0.69822195  0.69418491     0.06900
H2566       H  0.93997414  0.67607014  0.67017473     0.08100
H2567       H  0.92000167  0.69508702  0.69301891     0.07200
H2568       H  0.93734792  0.76486955  0.57467293     0.02100
H2569       H  0.95555389  0.78914370  0.59499902     0.02500
H2570       H  0.91931623  0.78896709  0.59492182     0.06000
H2571       H  0.02647953  0.78138442  0.63551479     0.05000
H2572       H  0.00346516  0.75851566  0.65168247    -0.00700
H2573       H  0.99081481  0.78647482  0.63187571     0.00700
H2574       H  0.99751913  0.68077147  0.54549163     0.04400
H2575       H  0.02313777  0.69822336  0.52757943     0.06300
H2576       H  0.98862322  0.70858672  0.52370868     0.07200
C2577       C  0.19551476  0.84000096  0.76724322    -0.22400
C2578       C  0.19696453  0.86281890  0.75064643     0.09500
C2579       C  0.21979638  0.86688974  0.73426193     0.10000
C2580       C  0.24040783  0.84742930  0.73417647    -0.17300
C2581       C  0.23856527  0.82395638  0.75001941    -0.27800
C2582       C  0.21600900  0.82051232  0.76724326     0.18300
C2583       C  0.17381068  0.88165841  0.75039230     0.12300
C2584       C  0.22218014  0.89158361  0.71670522    -0.12100
H2585       H  0.25778885  0.85029496  0.72131213     0.12500
C2586       C  0.21369132  0.79685999  0.78632384    -0.22900
H2587       H  0.17803088  0.83732808  0.78005925     0.08200
C2588       C  0.15045235  0.87587650  0.73519558     0.04500
C2589       C  0.12798935  0.89285417  0.73740309    -0.20200
C2590       C  0.12842742  0.91568901  0.75421197    -0.12500
C2591       C  0.15212373  0.92183496  0.76896377     0.13200
C2592       C  0.17454146  0.90463310  0.76688895    -0.22900
C2593       C  0.14923476  0.85171742  0.71674165    -0.06000
H2594       H  0.10987782  0.88817967  0.72604174     0.14800
C2595       C  0.15350611  0.94561753  0.78790132    -0.16100
H2596       H  0.19254711  0.90875096  0.77861446     0.09100
H2597       H  0.21133277  0.77779341  0.77482668     0.06900
H2598       H  0.19589458  0.79873989  0.79975443     0.08100
H2599       H  0.23191418  0.79570374  0.79933309     0.07200
H2600       H  0.22190635  0.90998932  0.72949471     0.02100
H2601       H  0.20504736  0.89235300  0.70227060     0.02500
H2602       H  0.24120279  0.89156376  0.70493681     0.06000
H2603       H  0.12955890  0.85031083  0.70609864     0.05000
H2604       H  0.15209679  0.83290982  0.72858242    -0.00700
H2605       H  0.16534548  0.85323775  0.70129679     0.00700
H2606       H  0.17301521  0.94639919  0.79890219     0.04400
H2607       H  0.13714515  0.94418978  0.80309676     0.06300
H2608       H  0.15147228  0.96471731  0.77637079     0.07200
C2609       C  0.00437165  0.87587595  0.77338470    -0.22400
C2610       C  0.98179902  0.88710177  0.76076831     0.09500
C2611       C  0.98251116  0.91399490  0.75164486     0.10000
C2612       C  0.00670783  0.92854452  0.75357390    -0.17300
C2613       C  0.03019316  0.91659430  0.76419340    -0.27800
C2614       C  0.02863402  0.89015445  0.77522367     0.18300
C2615       C  0.95838896  0.86941596  0.75594561     0.12300
C2616       C  0.95803391  0.92692112  0.73912249    -0.12100
H2617       H  0.00753024  0.94891722  0.74564388     0.12500
C2618       C  0.05212441  0.87665605  0.78914300    -0.22900
H2619       H  0.00321612  0.85534568  0.78091198     0.08200
C2620       C  0.95906236  0.84960280  0.73549343     0.04500
C2621       C  0.93789610  0.83104215  0.73351613    -0.20200
C2622       C  0.91619235  0.83184191  0.75157196    -0.12500
C2623       C  0.91530835  0.85208178  0.77181396     0.13200
C2624       C  0.93636308  0.87085984  0.77345070    -0.22900
C2625       C  0.98219795  0.84797876  0.71588436    -0.06000
H2626       H  0.93841955  0.81560103  0.71799962     0.14800
C2627       C  0.89359994  0.85367650  0.79307482    -0.16100
H2628       H  0.93622133  0.88598298  0.78928450     0.09100
H2629       H  0.06809210  0.87169942  0.77432445     0.06900
H2630       H  0.04610773  0.85736864  0.79886602     0.08100
H2631       H  0.06027394  0.89006746  0.80516491     0.07200
H2632       H  0.94130505  0.92722934  0.75396302     0.02100
H2633       H  0.95166196  0.91526289  0.72105237     0.02500
H2634       H  0.96209560  0.94803897  0.73278526     0.06000
H2635       H  0.97915296  0.83171541  0.70073833     0.05000
H2636       H  0.00123301  0.84370365  0.72687307    -0.00700
H2637       H  0.98417261  0.86743316  0.70492677     0.00700
H2638       H  0.90302780  0.85351723  0.81343429     0.04400
H2639       H  0.87925897  0.83660889  0.79259746     0.06300
H2640       H  0.88214600  0.87277011  0.79060601     0.07200
C2641       C  0.17391538  0.23718915  0.57963942    -0.22400
C2642       C  0.17242472  0.24732673  0.60598891     0.09500
C2643       C  0.14842555  0.25939683  0.61504728     0.10000
C2644       C  0.12625232  0.26083880  0.59756984    -0.17300
C2645       C  0.12721411  0.25019698  0.57119132    -0.27800
C2646       C  0.15165135  0.23838694  0.56204322     0.18300
C2647       C  0.19603552  0.24471208  0.62409555     0.12300
C2648       C  0.14598527  0.27012010  0.64343465    -0.12100
H2649       H  0.10786428  0.27010205  0.60481826     0.12500
C2650       C  0.15445962  0.22620449  0.53429036    -0.22900
H2651       H  0.19255441  0.22796164  0.57298180     0.08200
C2652       C  0.20163836  0.22029705  0.63771223     0.04500
C2653       C  0.22342504  0.21918221  0.65575854    -0.20200
C2654       C  0.23925997  0.24204247  0.66077314    -0.12500
C2655       C  0.23354505  0.26652094  0.64738461     0.13200
C2656       C  0.21215251  0.26748510  0.62885270    -0.22900
C2657       C  0.18419166  0.19571998  0.63377700    -0.06000
H2658       H  0.22796031  0.20052855  0.66621044     0.14800
C2659       C  0.24938313  0.29178482  0.65343826    -0.16100
H2660       H  0.20746475  0.28623247  0.61857860     0.09100
H2661       H  0.17460025  0.21692116  0.53129597     0.06900
H2662       H  0.15203288  0.24207885  0.51865872     0.08100
H2663       H  0.13913126  0.21013672  0.53134498     0.07200
H2664       H  0.16088701  0.28649646  0.64676977     0.02100
H2665       H  0.14976204  0.25360558  0.65812849     0.02500
H2666       H  0.12561216  0.27846249  0.64742213     0.06000
H2667       H  0.19105164  0.17854463  0.64647497     0.05000
H2668       H  0.18482096  0.18926332  0.61232932    -0.00700
H2669       H  0.16307987  0.20050410  0.63939248     0.00700
H2670       H  0.27094126  0.28852050  0.64859823     0.04400
H2671       H  0.24747962  0.29694367  0.67518445     0.06300
H2672       H  0.24208089  0.30926146  0.64143073     0.07200
C2673       C  0.98208836  0.23804952  0.57827428    -0.22400
C2674       C  0.98282280  0.25031785  0.60372475     0.09500
C2675       C  0.00629082  0.26375989  0.61238066     0.10000
C2676       C  0.02866235  0.26467352  0.59524659    -0.17300
C2677       C  0.02845986  0.25181402  0.56989501    -0.27800
C2678       C  0.00464745  0.23846162  0.56119891     0.18300
C2679       C  0.95968275  0.24680535  0.62202656     0.12300
C2680       C  0.00807865  0.27622387  0.64011605    -0.12100
H2681       H  0.04671408  0.27496634  0.60206004     0.12500
C2682       C  0.00305710  0.22346016  0.53474571    -0.22900
H2683       H  0.96397604  0.22744338  0.57211912     0.08200
C2684       C  0.93918102  0.26638016  0.62418469     0.04500
C2685       C  0.91846652  0.26250380  0.64301567    -0.20200
C2686       C  0.91795724  0.23952419  0.65957543    -0.12500
C2687       C  0.93801256  0.21948899  0.65663977     0.13200
C2688       C  0.95875990  0.22350683  0.63799361    -0.22900
C2689       C  0.93922862  0.29127264  0.60671844    -0.06000
H2690       H  0.90294877  0.27773632  0.64528262     0.14800
C2691       C  0.93781290  0.19343214  0.67230224    -0.16100
H2692       H  0.97442151  0.20838579  0.63592819     0.09100
H2693       H  0.00520415  0.23777628  0.51764920     0.06900
H2694       H  0.98341630  0.21299496  0.53221154     0.08100
H2695       H  0.01915086  0.20792239  0.53384198     0.07200
H2696       H  0.00499451  0.26043491  0.65572223     0.02100
H2697       H  0.99243037  0.29201645  0.64247328     0.02500
H2698       H  0.02803683  0.28571414  0.64375270     0.06000
H2699       H  0.92164489  0.30445607  0.61099336     0.05000
H2700       H  0.93840090  0.28531942  0.58512167    -0.00700
H2701       H  0.95781244  0.30318449  0.61034834     0.00700
H2702       H  0.93786506  0.17613020  0.65804002     0.04400
H2703       H  0.91977383  0.19125544  0.68522337     0.06300
H2704       H  0.95607129  0.19226026  0.68525047     0.07200
C2705       C  0.17492642  0.06936391  0.74514944    -0.22400
C2706       C  0.17550976  0.09235377  0.76163857     0.09500
C2707       C  0.15381201  0.09774568  0.77914167    -0.01200
C2708       C  0.13132587  0.08070680  0.77877735    -0.17300
C2709       C  0.13013693  0.05822390  0.76156135    -0.27800
C2710       C  0.15248393  0.05207478  0.74494412     0.18300
C2711       C  0.19765943  0.11201173  0.75839354     0.12300
C2712       C  0.15433000  0.12155718  0.79809806    -0.12100
H2713       H  0.11435083  0.08518494  0.79176930     0.12500
C2714       C  0.15225765  0.02832043  0.72593177    -0.22900
H2715       H  0.19170817  0.06550568  0.73172211     0.08200
C2716       C  0.22350268  0.10756853  0.76925227     0.04500
C2717       C  0.24335472  0.12744523  0.76599527    -0.20200
C2718       C  0.23770572  0.15216542  0.75317152    -0.12500
C2719       C  0.21173157  0.15619776  0.74176202     0.13200
C2720       C  0.19224766  0.13588529  0.74429458    -0.22900
C2721       C  0.22990318  0.08223769  0.78481510    -0.06000
H2722       H  0.26329621  0.12380515  0.77394048     0.14800
C2723       C  0.20434435  0.18133576  0.72625659    -0.16100
H2724       H  0.17236012  0.13880487  0.73566380     0.09100
H2725       H  0.15097560  0.00922173  0.73756845     0.06900
H2726       H  0.17087290  0.02743990  0.71355538     0.08100
H2727       H  0.13478821  0.02986186  0.71196733     0.07200
H2728       H  0.15551220  0.14066948  0.78648595     0.02100
H2729       H  0.17210191  0.12001841  0.81167283     0.02500
H2730       H  0.13595724  0.12241402  0.81083202     0.06000
H2731       H  0.25097976  0.08222851  0.79240258     0.05000
H2732       H  0.22721814  0.06431933  0.77163648    -0.00700
H2733       H  0.21623092  0.08055349  0.80245388     0.00700
H2734       H  0.21925002  0.18478091  0.70999084     0.04400
H2735       H  0.20376354  0.19900863  0.74000015     0.06300
H2736       H  0.18414829  0.17966198  0.71668202     0.07200
C2737       C  0.94415537  0.11227021  0.77679986    -0.22400
C2738       C  0.96153414  0.11000669  0.75464653     0.09500
C2739       C  0.95640067  0.12479840  0.73088050     0.10000
C2740       C  0.93407821  0.14194874  0.72995672    -0.17300
C2741       C  0.91713453  0.14489405  0.75230072    -0.27800
C2742       C  0.92198557  0.12976169  0.77602775     0.18300
C2743       C  0.98556917  0.09274323  0.75700971     0.12300
C2744       C  0.97486896  0.12307985  0.70683455    -0.12100
H2745       H  0.93004554  0.15347687  0.71187723     0.12500
C2746       C  0.90495874  0.13230631  0.80110439    -0.22900
H2747       H  0.94834149  0.10084626  0.79501363     0.08200
C2748       C  0.00918785  0.10217858  0.76963917     0.04500
C2749       C  0.03185098  0.08540077  0.77061098    -0.20200
C2750       C  0.03156298  0.05944820  0.75900699    -0.12500
C2751       C  0.00764087  0.05011792  0.74626080     0.13200
C2752       C  0.98492972  0.06694948  0.74558059    -0.22900
C2753       C  0.01061052  0.13015375  0.78155183    -0.06000
H2754       H  0.04998925  0.09274790  0.78038165     0.14800
C2755       C  0.00592950  0.02307121  0.73239158    -0.16100
H2756       H  0.96661214  0.06017151  0.73571596     0.09100
H2757       H  0.91774638  0.13911455  0.81823392     0.06900
H2758       H  0.89612064  0.11235529  0.80619782     0.08100
H2759       H  0.88823599  0.14694378  0.79888550     0.07200
H2760       H  0.97548746  0.10202633  0.69920840     0.02100
H2761       H  0.99550283  0.12944190  0.71276190     0.02500
H2762       H  0.96802001  0.13633403  0.69007242     0.06000
H2763       H  0.03074580  0.13446014  0.79039208     0.05000
H2764       H  0.99537785  0.13229254  0.79778461    -0.00700
H2765       H  0.00658278  0.14538368  0.76558957     0.00700
H2766       H  0.98623347  0.02017164  0.72208938     0.04400
H2767       H  0.00806934  0.00658685  0.74741005     0.06300
H2768       H  0.02194063  0.02145259  0.71685391     0.07200
C2769       C  0.50266281  0.08746786  0.23891329    -0.22400
C2770       C  0.47867236  0.08649639  0.25371994     0.09500
C2771       C  0.47186426  0.06300552  0.26815997     0.10000
C2772       C  0.48903180  0.04066438  0.26703867    -0.17300
C2773       C  0.51257272  0.04092351  0.25126275    -0.27800
C2774       C  0.51975879  0.06490108  0.23736933     0.18300
C2775       C  0.45960232  0.10925638  0.25187871     0.12300
C2776       C  0.44595145  0.06115245  0.28390451    -0.12100
H2777       H  0.48352599  0.02251096  0.27793576     0.12500
C2778       C  0.54444316  0.06655296  0.21977828    -0.22900
H2779       H  0.50749321  0.10566894  0.22777102     0.08200
C2780       C  0.45959311  0.13037828  0.27093128     0.04500
C2781       C  0.43978626  0.15052554  0.26914249    -0.20200
C2782       C  0.41974468  0.14945503  0.24910680    -0.12500
C2783       C  0.42010158  0.12845716  0.22975843     0.13200
C2784       C  0.44021695  0.10869701  0.23130620    -0.22900
C2785       C  0.48021363  0.13133040  0.29325490    -0.06000
H2786       H  0.43944107  0.16671001  0.28387404     0.14800
C2787       C  0.39963768  0.12702052  0.20721158    -0.16100
H2788       H  0.44052340  0.09233452  0.21676757     0.09100
H2789       H  0.56285974  0.06391318  0.23224806     0.06900
H2790       H  0.54603692  0.08642211  0.20950382     0.08100
H2791       H  0.54358687  0.05070653  0.20393976     0.07200
H2792       H  0.42851643  0.06394627  0.27010047     0.02100
H2793       H  0.44543743  0.07700238  0.29971841     0.02500
H2794       H  0.44372309  0.04124234  0.29397183     0.06000
H2795       H  0.47733043  0.14919885  0.30639218     0.05000
H2796       H  0.50075266  0.13234506  0.28449579    -0.00700
H2797       H  0.47859351  0.11299981  0.30602889     0.00700
H2798       H  0.40388577  0.11008822  0.19314513     0.04400
H2799       H  0.39993911  0.14607224  0.19539400     0.06300
H2800       H  0.37918238  0.12376466  0.21557876     0.07200
C2801       C  0.46969824  0.91617583  0.23540668    -0.22400
C2802       C  0.47771212  0.89576355  0.25319878     0.09500
C2803       C  0.50204111  0.89821986  0.26770175     0.10000
C2804       C  0.51763709  0.92165548  0.26452311    -0.17300
C2805       C  0.50924449  0.94252818  0.24724408    -0.27800
C2806       C  0.48514785  0.93957011  0.23217133     0.18300
C2807       C  0.46022410  0.87183397  0.25543133     0.12300
C2808       C  0.51139596  0.87620182  0.28646008    -0.12100
H2809       H  0.53614274  0.92395286  0.27596436     0.12500
C2810       C  0.47599999  0.96048349  0.21199386    -0.22900
H2811       H  0.45115981  0.91372775  0.22402787     0.08200
C2812       C  0.43787666  0.87157891  0.27294000     0.04500
C2813       C  0.41921240  0.85044198  0.27107552    -0.20200
C2814       C  0.42237946  0.82973010  0.25199107    -0.12500
C2815       C  0.44526208  0.82965380  0.23502398     0.13200
C2816       C  0.46398249  0.85074121  0.23704237    -0.22900
C2817       C  0.43341043  0.89393354  0.29306055    -0.06000
H2818       H  0.40183169  0.85027012  0.28430675     0.14800
C2819       C  0.44911462  0.80853018  0.21355582    -0.16100
H2820       H  0.48105690  0.85144515  0.22344249     0.09100
H2821       H  0.47071284  0.97955708  0.22242235     0.06900
H2822       H  0.45783644  0.95375996  0.20068917     0.08100
H2823       H  0.49225933  0.96429308  0.19710835     0.07200
H2824       H  0.51422370  0.85719520  0.27493485     0.02100
H2825       H  0.49616892  0.87283164  0.30248743     0.02500
H2826       H  0.53082783  0.88141961  0.29633719     0.06000
H2827       H  0.41493927  0.89053820  0.30522674     0.05000
H2828       H  0.43121485  0.91349328  0.28234322    -0.00700
H2829       H  0.45082290  0.89513749  0.30710809     0.00700
H2830       H  0.46724116  0.81258499  0.20109108     0.04400
H2831       H  0.43128708  0.80841571  0.19997534     0.06300
H2832       H  0.45171394  0.78835472  0.22292643     0.07200
C2833       C  0.32555282  0.08192340  0.07530785    -0.22400
C2834       C  0.34015969  0.08222389  0.09959511     0.09500
C2835       C  0.35703049  0.06033522  0.10619346     0.10000
C2836       C  0.35824325  0.03813009  0.08882401    -0.17300
C2837       C  0.34313237  0.03722189  0.06482398    -0.27800
C2838       C  0.32684613  0.05964483  0.05769968     0.18300
C2839       C  0.33642142  0.10468648  0.11890991     0.12300
C2840       C  0.37370909  0.06036043  0.13167987    -0.12100
H2841       H  0.37096463  0.02116593  0.09419888     0.12500
C2842       C  0.30988427  0.05978660  0.03240582    -0.22900
H2843       H  0.31262833  0.09889569  0.07048685     0.08200
C2844       C  0.35065865  0.12916432  0.11644686     0.04500
C2845       C  0.34795419  0.14886012  0.13663052    -0.20200
C2846       C  0.33181874  0.14435679  0.15952904    -0.12500
C2847       C  0.31751858  0.11970559  0.16187093     0.13200
C2848       C  0.31979729  0.10035656  0.14131983    -0.22900
C2849       C  0.36917680  0.13416719  0.09291928    -0.06000
H2850       H  0.35905341  0.16763000  0.13485263     0.14800
C2851       C  0.29949652  0.11371039  0.18561833    -0.16100
H2852       H  0.30908937  0.08135189  0.14301693     0.09100
H2853       H  0.32301622  0.05899043  0.01431799     0.06900
H2854       H  0.29746208  0.07837260  0.03084737     0.08100
H2855       H  0.29603960  0.04217270  0.03241623     0.07200
H2856       H  0.36039497  0.06141431  0.14961672     0.02100
H2857       H  0.38744724  0.07805403  0.13167693     0.02500
H2858       H  0.38616674  0.04182601  0.13349536     0.06000
H2859       H  0.37906461  0.15424519  0.09427466     0.05000
H2860       H  0.35755012  0.13336982  0.07376058    -0.00700
H2861       H  0.38516995  0.11850732  0.09248641     0.00700
H2862       H  0.28417403  0.12988604  0.18780200     0.04400
H2863       H  0.31165420  0.11219922  0.20438934     0.06300
H2864       H  0.28868325  0.09423020  0.18311373     0.07200
C2865       C  0.35392988  0.84843536  0.11611386    -0.22400
C2866       C  0.34358289  0.87403284  0.12191930     0.09500
C2867       C  0.32989469  0.87853749  0.14640633     0.10000
C2868       C  0.32728116  0.85729475  0.16488100    -0.17300
C2869       C  0.33765866  0.83146429  0.15932174    -0.27800
C2870       C  0.35114957  0.82698388  0.13443438     0.18300
C2871       C  0.34634479  0.89566598  0.10160597     0.12300
C2872       C  0.31763766  0.90562600  0.15284242    -0.12100
H2873       H  0.31676605  0.86086058  0.18370689     0.12500
C2874       C  0.36336234  0.80007170  0.12714950    -0.22900
H2875       H  0.36422086  0.84528568  0.09708599     0.08200
C2876       C  0.36720253  0.91492185  0.10312394     0.04500
C2877       C  0.36738430  0.93646033  0.08474846    -0.20200
C2878       C  0.34730133  0.93900657  0.06486302    -0.12500
C2879       C  0.32690306  0.91911525  0.06285889     0.13200
C2880       C  0.32689722  0.89754167  0.08117455    -0.22900
C2881       C  0.38902413  0.91286683  0.12424897    -0.06000
H2882       H  0.38292363  0.95178263  0.08628276     0.14800
C2883       C  0.30390011  0.92063741  0.04297064    -0.16100
H2884       H  0.31094346  0.88260276  0.08020495     0.09100
H2885       H  0.37787599  0.79371747  0.14302414     0.06900
H2886       H  0.37443061  0.80096410  0.10769968     0.08100
H2887       H  0.34728775  0.78465904  0.12485008     0.07200
H2888       H  0.30244237  0.91091215  0.13723311     0.02100
H2889       H  0.33345820  0.92143282  0.15326007     0.02500
H2890       H  0.30747363  0.90559227  0.17280369     0.06000
H2891       H  0.40390072  0.92952108  0.12242854     0.05000
H2892       H  0.39990238  0.89343179  0.12193423    -0.00700
H2893       H  0.38015805  0.91379783  0.14476509     0.00700
H2894       H  0.30429685  0.90260061  0.02966774     0.04400
H2895       H  0.30434321  0.93881798  0.03004368     0.06300
H2896       H  0.28451873  0.92090749  0.05412583     0.07200
C2897       C  0.68462730  0.06308652  0.71395574    -0.22400
C2898       C  0.68013727  0.08345173  0.73301200     0.09500
C2899       C  0.65796292  0.08167217  0.75064981     0.10000
C2900       C  0.64135179  0.05880243  0.74965419    -0.17300
C2901       C  0.64671695  0.03761739  0.73165101    -0.27800
C2902       C  0.66807300  0.04020019  0.71288635     0.18300
C2903       C  0.70031916  0.10516795  0.73582296     0.12300
C2904       C  0.65254685  0.10339058  0.77120946    -0.12100
H2905       H  0.62500967  0.05679198  0.76400265     0.12500
C2906       C  0.67390604  0.01945699  0.69138680    -0.22900
H2907       H  0.70156770  0.06477869  0.70026159     0.08200
C2908       C  0.72358428  0.10126779  0.75169204     0.04500
C2909       C  0.74229314  0.12224500  0.75414076    -0.20200
C2910       C  0.73827218  0.14717188  0.74127291    -0.12500
C2911       C  0.71496067  0.15094290  0.72500981     0.13200
C2912       C  0.69622177  0.12979808  0.72258032    -0.22900
C2913       C  0.72860663  0.07495532  0.76613525    -0.06000
H2914       H  0.76018256  0.11915675  0.76628405     0.14800
C2915       C  0.71015204  0.17658711  0.70928490    -0.16100
H2916       H  0.67833582  0.13238660  0.71024233     0.09100
H2917       H  0.69398872  0.01029194  0.69510187     0.06900
H2918       H  0.67404804  0.02940933  0.67129032     0.08100
H2919       H  0.65863279  0.00318244  0.69042219     0.07200
H2920       H  0.64892031  0.12289221  0.76077756     0.02100
H2921       H  0.67014696  0.10551651  0.78492638     0.02500
H2922       H  0.63458415  0.09867138  0.78368612     0.06000
H2923       H  0.74767639  0.07540664  0.77791024     0.05000
H2924       H  0.72998597  0.05827367  0.75123762    -0.00700
H2925       H  0.71184367  0.07076089  0.78033410     0.00700
H2926       H  0.69192824  0.17511877  0.69629793     0.04400
H2927       H  0.72764235  0.18073909  0.69597002     0.06300
H2928       H  0.70704548  0.19377558  0.72329115     0.07200
C2929       C  0.68871318  0.91595729  0.76040475    -0.22400
C2930       C  0.68101888  0.89347130  0.74518775     0.09500
C2931       C  0.65635021  0.89359570  0.73102432     0.10000
C2932       C  0.64030005  0.91693475  0.73155504    -0.17300
C2933       C  0.64879873  0.94012973  0.74550388    -0.27800
C2934       C  0.67302809  0.93939145  0.76067921     0.18300
C2935       C  0.69983592  0.87048997  0.74399773     0.12300
C2936       C  0.64747072  0.86946620  0.71479164    -0.12100
H2937       H  0.62163405  0.91746109  0.72015828     0.12500
C2938       C  0.68234470  0.96294272  0.77762370    -0.22900
H2939       H  0.70751467  0.91532900  0.77159208     0.08200
C2940       C  0.72328171  0.87175178  0.72801940     0.04500
C2941       C  0.74206131  0.85076738  0.72954852    -0.20200
C2942       C  0.73797856  0.82863506  0.74675183    -0.12500
C2943       C  0.71430063  0.82727457  0.76260655     0.13200
C2944       C  0.69544904  0.84830301  0.76093513    -0.22900
C2945       C  0.72854053  0.89529497  0.70947138    -0.06000
H2946       H  0.76010057  0.85166242  0.71726479     0.14800
C2947       C  0.70937442  0.80454062  0.78225568    -0.16100
H2948       H  0.67753115  0.84784825  0.77340281     0.09100
H2949       H  0.68790282  0.98023677  0.76455892     0.06900
H2950       H  0.70042990  0.95777547  0.78982989     0.08100
H2951       H  0.66611672  0.96902769  0.79176215     0.07200
H2952       H  0.64534148  0.85166426  0.72823420     0.02100
H2953       H  0.66265603  0.86496555  0.69898816     0.02500
H2954       H  0.62777832  0.87302818  0.70470500     0.06000
H2955       H  0.74763339  0.89277742  0.69808351     0.05000
H2956       H  0.73008171  0.91422793  0.72135240    -0.00700
H2957       H  0.71181355  0.89716212  0.69466627     0.00700
H2958       H  0.69075683  0.80782794  0.79421414     0.04400
H2959       H  0.72653572  0.80296100  0.79660812     0.06300
H2960       H  0.70692337  0.78520071  0.77123001     0.07200
C2961       C  0.84869814  0.05912334  0.89135185    -0.22400
C2962       C  0.83322356  0.08185465  0.89739052     0.09500
C2963       C  0.81677398  0.08206986  0.92054515     0.10000
C2964       C  0.81529758  0.05885115  0.93670697    -0.17300
C2965       C  0.82929745  0.03526699  0.92963244    -0.27800
C2966       C  0.84686408  0.03569262  0.90703556     0.18300
C2967       C  0.83231520  0.10393806  0.87748092     0.12300
C2968       C  0.80028377  0.10655743  0.92766914    -0.12100
H2969       H  0.80210856  0.05868839  0.95412105     0.12500
C2970       C  0.86360186  0.01162747  0.89897360    -0.22900
H2971       H  0.86133612  0.05934809  0.87351643     0.08200
C2972       C  0.85175300  0.12464129  0.87706807     0.04500
C2973       C  0.84995553  0.14478073  0.85725261    -0.20200
C2974       C  0.82925738  0.14443452  0.83785701    -0.12500
C2975       C  0.80949638  0.12384164  0.83867811     0.13200
C2976       C  0.81157784  0.10362308  0.85828484    -0.22900
C2977       C  0.87431717  0.12536636  0.89742436    -0.06000
H2978       H  0.86501991  0.16062719  0.85659149     0.14800
C2979       C  0.78541026  0.12297860  0.82008169    -0.16100
H2980       H  0.79664476  0.08763722  0.85889367     0.09100
H2981       H  0.87835954  0.01680951  0.88296049     0.06900
H2982       H  0.85037781  0.99561141  0.89067134     0.08100
H2983       H  0.87505643  0.00393003  0.91665559     0.07200
H2984       H  0.78580515  0.11104684  0.91114720     0.02100
H2985       H  0.81377484  0.12420043  0.93060316     0.02500
H2986       H  0.78864716  0.10346346  0.94654507     0.06000
H2987       H  0.88765147  0.14311367  0.89436352     0.05000
H2988       H  0.88674209  0.10683270  0.89557903    -0.00700
H2989       H  0.86587268  0.12649093  0.91813295     0.00700
H2990       H  0.78635285  0.10448633  0.80745180     0.04400
H2991       H  0.78384588  0.14079322  0.80668788     0.06300
H2992       H  0.76667360  0.12237803  0.83228585     0.07200
C2993       C  0.80127406  0.89379993  0.91698990    -0.22400
C2994       C  0.82066193  0.89208956  0.89651819     0.09500
C2995       C  0.83938535  0.91312009  0.89289464     0.10000
C2996       C  0.83862614  0.93529467  0.91023825    -0.17300
C2997       C  0.81892904  0.93754789  0.93040579    -0.27800
C2998       C  0.79997185  0.91653100  0.93391669     0.18300
C2999       C  0.81997371  0.86912536  0.87767968     0.12300
C3000       C  0.85957238  0.91264138  0.87016847    -0.12100
H3001       H  0.85331604  0.95124719  0.90772636     0.12500
C3002       C  0.77763325  0.91855275  0.95434711    -0.22900
H3003       H  0.78670480  0.87764444  0.91917654     0.08200
C3004       C  0.83688381  0.84656012  0.88114870     0.04500
C3005       C  0.83736782  0.82657785  0.86115070    -0.20200
C3006       C  0.82151324  0.82890224  0.83774303    -0.12500
C3007       C  0.80372392  0.85110713  0.83487707     0.13200
C3008       C  0.80325797  0.87097951  0.85497578    -0.22900
C3009       C  0.85450850  0.84372945  0.90579687    -0.06000
H3010       H  0.85073077  0.80942149  0.86345490     0.14800
C3011       C  0.78474398  0.85377227  0.81115548    -0.16100
H3012       H  0.79022735  0.88840728  0.85274783     0.09100
H3013       H  0.78618982  0.91949313  0.97504121     0.06900
H3014       H  0.76395081  0.90082350  0.95339027     0.08100
H3015       H  0.76545836  0.93694602  0.95040354     0.07200
H3016       H  0.84885230  0.91156054  0.85049314     0.02100
H3017       H  0.87298998  0.89486118  0.87218516     0.02500
H3018       H  0.87236804  0.93104763  0.87004664     0.06000
H3019       H  0.86636486  0.82472178  0.90536482     0.05000
H3020       H  0.84178633  0.84357585  0.92420265    -0.00700
H3021       H  0.86885986  0.86085811  0.90703135     0.00700
H3022       H  0.77099352  0.87130649  0.81346743     0.04400
H3023       H  0.79623703  0.85690201  0.79223419     0.06300
H3024       H  0.77214045  0.83532538  0.80937417     0.07200
C3025       C  0.28128509  0.37951529  0.07450165    -0.22400
C3026       C  0.30345323  0.38195239  0.09189103     0.09500
C3027       C  0.32213619  0.40303414  0.08804731     0.10000
C3028       C  0.31863497  0.42088216  0.06635214    -0.17300
C3029       C  0.29717637  0.41779240  0.04810711    -0.27800
C3030       C  0.27774991  0.39732700  0.05272620     0.18300
C3031       C  0.30747177  0.36159652  0.11337348     0.12300
C3032       C  0.34627941  0.40608379  0.10629615    -0.12100
H3033       H  0.33356053  0.43645309  0.06278477     0.12500
C3034       C  0.25285131  0.39401352  0.03556995    -0.22900
H3035       H  0.26678935  0.36347011  0.07781579     0.08200
C3036       C  0.29713705  0.36531082  0.13955425     0.04500
C3037       C  0.30260988  0.34596413  0.15953393    -0.20200
C3038       C  0.31806945  0.32282078  0.15387345    -0.12500
C3039       C  0.32829404  0.31915723  0.12734672     0.13200
C3040       C  0.32283010  0.33866458  0.10751635    -0.22900
C3041       C  0.28034031  0.38968812  0.14631080    -0.06000
H3042       H  0.29442364  0.34878869  0.17960895     0.14800
C3043       C  0.34564204  0.29532903  0.11976866    -0.16100
H3044       H  0.33077182  0.33618777  0.08728920     0.09100
H3045       H  0.23471541  0.39517263  0.04860801     0.06900
H3046       H  0.25316821  0.37397415  0.02554439     0.08100
H3047       H  0.25080073  0.40991502  0.01997769     0.07200
H3048       H  0.35888010  0.38760079  0.10529352     0.02100
H3049       H  0.33961263  0.40923267  0.12743235     0.02500
H3050       H  0.35898234  0.42355883  0.10037295     0.06000
H3051       H  0.27396061  0.38956871  0.16775329     0.05000
H3052       H  0.26199875  0.39000159  0.13343811    -0.00700
H3053       H  0.29210633  0.40839456  0.14273681     0.00700
H3054       H  0.33368799  0.27641903  0.12060979     0.04400
H3055       H  0.36317644  0.29393383  0.13367530     0.06300
H3056       H  0.35354946  0.29713729  0.09888221     0.07200
C3057       C  0.29391495  0.38057618  0.92075490    -0.22400
C3058       C  0.31237696  0.38987900  0.90164611     0.09500
C3059       C  0.32545878  0.41479114  0.90556501     0.10000
C3060       C  0.32060125  0.42938622  0.92937148    -0.17300
C3061       C  0.30306183  0.41950895  0.94941618    -0.27800
C3062       C  0.28903013  0.39495331  0.94460518     0.18300
C3063       C  0.31803726  0.37239953  0.87820566     0.12300
C3064       C  0.34461060  0.42580079  0.88473910    -0.12100
H3065       H  0.33127644  0.44818712  0.93266949     0.12500
C3066       C  0.26868815  0.38363491  0.96411256    -0.22900
H3067       H  0.28373767  0.36152051  0.91719826     0.08200
C3068       C  0.33852326  0.35269452  0.87936197     0.04500
C3069       C  0.34113073  0.33427665  0.85808475    -0.20200
C3070       C  0.32335935  0.33477075  0.83604107    -0.12500
C3071       C  0.30273527  0.35446768  0.83492338     0.13200
C3072       C  0.30053613  0.37328305  0.85598696    -0.22900
C3073       C  0.35688832  0.35038696  0.90353456    -0.06000
H3074       H  0.35669397  0.31894022  0.85895325     0.14800
C3075       C  0.28198376  0.35463071  0.81260079    -0.16100
H3076       H  0.28444480  0.38807342  0.85571534     0.09100
H3077       H  0.25797534  0.36585538  0.95560810     0.06900
H3078       H  0.25333075  0.39918402  0.96890939     0.08100
H3079       H  0.27895003  0.37674857  0.98277767     0.07200
H3080       H  0.33385328  0.42847078  0.86523913     0.02100
H3081       H  0.36165010  0.41162610  0.88178917     0.02500
H3082       H  0.35301858  0.44566061  0.89088483     0.06000
H3083       H  0.37157240  0.33363065  0.90122696     0.05000
H3084       H  0.34478491  0.34643020  0.92194126    -0.00700
H3085       H  0.36837694  0.36939970  0.90627924     0.00700
H3086       H  0.26646712  0.37046201  0.81580339     0.04400
H3087       H  0.27155275  0.33480203  0.81177960     0.06300
H3088       H  0.29178744  0.35868600  0.79290667     0.07200
C3089       C  0.19887167  0.22035854  0.13427102    -0.22400
C3090       C  0.20007162  0.24249253  0.11675428     0.09500
C3091       C  0.21997233  0.26247869  0.12038254     0.10000
C3092       C  0.23910523  0.25925252  0.14091762    -0.17300
C3093       C  0.23843707  0.23671236  0.15802380    -0.27800
C3094       C  0.21792081  0.21714852  0.15492433     0.18300
C3095       C  0.18192001  0.24320608  0.09321562     0.12300
C3096       C  0.22109348  0.28702091  0.10244060    -0.12100
H3097       H  0.25464783  0.27440799  0.14371003     0.12500
C3098       C  0.21610235  0.19222311  0.17219184    -0.22900
H3099       H  0.18352844  0.20505936  0.13122111     0.08200
C3100       C  0.18963795  0.23126765  0.06864913     0.04500
C3101       C  0.17307190  0.23430658  0.04598837    -0.20200
C3102       C  0.14863929  0.24861384  0.04735804    -0.12500
C3103       C  0.14030336  0.25943458  0.07260813     0.13200
C3104       C  0.15731712  0.25677936  0.09515756    -0.22900
C3105       C  0.21549638  0.21548047  0.06634949    -0.06000
H3106       H  0.17931623  0.22534541  0.02704629     0.14800
C3107       C  0.11405509  0.27433906  0.07610712    -0.16100
H3108       H  0.15161803  0.26558235  0.11435885     0.09100
H3109       H  0.21648435  0.17399222  0.15916080     0.06900
H3110       H  0.19685778  0.19258598  0.18354046     0.08100
H3111       H  0.23298363  0.19038419  0.18671776     0.07200
H3112       H  0.20194888  0.29847897  0.10412774     0.02100
H3113       H  0.22403314  0.28078616  0.08112261     0.02500
H3114       H  0.23790308  0.30071109  0.10814593     0.06000
H3115       H  0.21844548  0.20735331  0.04566434     0.05000
H3116       H  0.21512297  0.19819122  0.08061654    -0.00700
H3117       H  0.23291876  0.22866315  0.07125857     0.00700
H3118       H  0.09686766  0.26047308  0.07240580     0.04400
H3119       H  0.11311098  0.29169533  0.06195901     0.06300
H3120       H  0.11175811  0.28235661  0.09692780     0.07200
C3121       C  0.22069531  0.26237516  0.88223165    -0.22400
C3122       C  0.19717882  0.24722793  0.87860824     0.09500
C3123       C  0.19308660  0.23277860  0.85447039     0.10000
C3124       C  0.21340035  0.23287633  0.83479134    -0.17300
C3125       C  0.23767509  0.24705531  0.83888819    -0.27800
C3126       C  0.24104489  0.26256100  0.86272634     0.18300
C3127       C  0.17804177  0.24602988  0.90131178     0.12300
C3128       C  0.16754546  0.21703917  0.84975680    -0.12100
H3129       H  0.21056732  0.22130414  0.81642039     0.12500
C3130       C  0.26560019  0.27988543  0.86765302    -0.22900
H3131       H  0.22332013  0.27370034  0.90079435     0.08200
C3132       C  0.18313121  0.22909023  0.92358442     0.04500
C3133       C  0.16733462  0.23170125  0.94679148    -0.20200
C3134       C  0.14667639  0.25101984  0.94837148    -0.12500
C3135       C  0.14124789  0.26768531  0.92568295     0.13200
C3136       C  0.15679391  0.26456600  0.90224564    -0.22900
C3137       C  0.20550594  0.20852606  0.92295018    -0.06000
H3138       H  0.17137203  0.21874771  0.96398273     0.14800
C3139       C  0.12075993  0.29016858  0.92577461    -0.16100
H3140       H  0.15334432  0.27776910  0.88511106     0.09100
H3141       H  0.28370861  0.26704665  0.87035580     0.06900
H3142       H  0.26352719  0.29227605  0.88622803     0.08100
H3143       H  0.26860377  0.29390436  0.85041700     0.07200
H3144       H  0.14997889  0.23089386  0.85040634     0.02100
H3145       H  0.16523677  0.20141569  0.86565780     0.02500
H3146       H  0.16760172  0.20679861  0.82979879     0.06000
H3147       H  0.20651140  0.19666872  0.94196322     0.05000
H3148       H  0.22519861  0.21876998  0.92019045    -0.00700
H3149       H  0.20213600  0.19426632  0.90597652     0.00700
H3150       H  0.13049936  0.30921934  0.91910582     0.04400
H3151       H  0.11212253  0.29431250  0.94589234     0.06300
H3152       H  0.10418314  0.28521998  0.91151636     0.07200
C3153       C  0.83905995  0.56920292  0.09132712    -0.22400
C3154       C  0.82802057  0.59520864  0.09037503     0.09500
C3155       C  0.81513012  0.60423869  0.06669479     0.10000
C3156       C  0.81404746  0.58720978  0.04417309    -0.17300
C3157       C  0.82522262  0.56110816  0.04476073    -0.27800
C3158       C  0.83762215  0.55183270  0.06890449     0.18300
C3159       C  0.83001377  0.61278460  0.11442900     0.12300
C3160       C  0.80231144  0.63178731  0.06528157    -0.12100
H3161       H  0.80415701  0.59435106  0.02598940     0.12500
C3162       C  0.84989178  0.52408676  0.07121492    -0.22900
H3163       H  0.84878654  0.56250456  0.10976985     0.08200
C3164       C  0.81092168  0.61132995  0.13542031     0.04500
C3165       C  0.81305293  0.62910936  0.15739584    -0.20200
C3166       C  0.83330788  0.64886333  0.15827360    -0.12500
C3167       C  0.85232005  0.65043913  0.13703274     0.13200
C3168       C  0.85063524  0.63205710  0.11554345    -0.22900
C3169       C  0.78786936  0.59159135  0.13411939    -0.06000
H3170       H  0.79819836  0.62834791  0.17339707     0.14800
C3171       C  0.87451374  0.67128610  0.13697942    -0.16100
H3172       H  0.86504944  0.63310705  0.09915838     0.09100
H3173       H  0.83397564  0.50846016  0.06927875     0.06900
H3174       H  0.85986677  0.52101312  0.09108321     0.08100
H3175       H  0.86530602  0.52121815  0.05526200     0.07200
H3176       H  0.81779707  0.64760586  0.06865032     0.02100
H3177       H  0.78650627  0.63357020  0.08100934     0.02500
H3178       H  0.79274922  0.63552510  0.04532486     0.06000
H3179       H  0.77450264  0.59333941  0.15198723     0.05000
H3180       H  0.79578695  0.57065686  0.13332450    -0.00700
H3181       H  0.77557377  0.59549871  0.11576681     0.00700
H3182       H  0.88841521  0.66849696  0.11965571     0.04400
H3183       H  0.88650336  0.66973109  0.15587474     0.06300
H3184       H  0.86587374  0.69186755  0.13528514     0.07200
C3185       C  0.83394161  0.56887765  0.89991471    -0.22400
C3186       C  0.81989717  0.59335213  0.90053123     0.09500
C3187       C  0.80530839  0.60069745  0.92373037     0.10000
C3188       C  0.80559120  0.58352772  0.94616561    -0.17300
C3189       C  0.82058582  0.55943535  0.94619978    -0.27800
C3190       C  0.83500443  0.55197548  0.92262234     0.18300
C3191       C  0.82270543  0.61211940  0.87759564     0.12300
C3192       C  0.79014679  0.62701773  0.92508373    -0.12100
H3193       H  0.79447332  0.58928386  0.96408793     0.12500
C3194       C  0.85319354  0.52766300  0.92082871    -0.22900
H3195       H  0.84533894  0.56363132  0.88200471     0.08200
C3196       C  0.84508454  0.62961111  0.87582641     0.04500
C3197       C  0.84647238  0.64809067  0.85451543    -0.20200
C3198       C  0.82613783  0.64919631  0.83491833    -0.12500
C3199       C  0.80398063  0.63130150  0.83630516     0.13200
C3200       C  0.80247096  0.61296686  0.85784010    -0.22900
C3201       C  0.86720611  0.62912695  0.89670990    -0.06000
H3202       H  0.86339088  0.66189172  0.85319983     0.14800
C3203       C  0.78153574  0.63216093  0.81571836    -0.16100
H3204       H  0.78535959  0.59946771  0.85950119     0.09100
H3205       H  0.87367865  0.53424514  0.91469232     0.06900
H3206       H  0.84527073  0.51355715  0.90530213     0.08100
H3207       H  0.85560135  0.51661621  0.94003422     0.07200
H3208       H  0.77451519  0.62758499  0.90902717     0.02100
H3209       H  0.80429766  0.64413306  0.92217958     0.02500
H3210       H  0.77999892  0.62972984  0.94486984     0.06000
H3211       H  0.88309456  0.64429771  0.89231371     0.05000
H3212       H  0.87680299  0.60889714  0.89710937    -0.00700
H3213       H  0.85871764  0.63364657  0.91693096     0.00700
H3214       H  0.78946863  0.62690997  0.79545322     0.04400
H3215       H  0.77257531  0.65269105  0.81504338     0.06300
H3216       H  0.76523552  0.61760308  0.82061796     0.07200
C3217       C  0.93791007  0.76223514  0.12125188    -0.22400
C3218       C  0.95862403  0.74301979  0.12121781     0.09500
C3219       C  0.96111272  0.72481539  0.14297610     0.10000
C3220       C  0.94210150  0.72552947  0.16386048    -0.17300
C3221       C  0.92056248  0.74383963  0.16323782    -0.27800
C3222       C  0.91889732  0.76305409  0.14209890     0.18300
C3223       C  0.97595620  0.74070790  0.09706707     0.12300
C3224       C  0.98314750  0.70393202  0.14355744    -0.12100
H3225       H  0.94337753  0.71095220  0.18014645     0.12500
C3226       C  0.89772642  0.78491342  0.14100385    -0.22900
H3227       H  0.93630741  0.77638793  0.10461332     0.08200
C3228       C  0.96608814  0.72859255  0.07329609     0.04500
C3229       C  0.98300063  0.72639943  0.05086323    -0.20200
C3230       C  0.00956891  0.73633301  0.05129095    -0.12500
C3231       C  0.01964475  0.74802338  0.07546244     0.13200
C3232       C  0.00259076  0.75009627  0.09804524    -0.22900
C3233       C  0.93765383  0.71794976  0.07155136    -0.06000
H3234       H  0.97518036  0.71711892  0.03263824     0.14800
C3235       C  0.04784808  0.75911006  0.07752833    -0.16100
H3236       H  0.00994103  0.75926680  0.11652486     0.09100
H3237       H  0.88442682  0.78164743  0.12323809     0.06900
H3238       H  0.90767005  0.80489168  0.13899655     0.08100
H3239       H  0.88514311  0.78591417  0.15939765     0.07200
H3240       H  0.00310432  0.71403920  0.14380084     0.02100
H3241       H  0.98164175  0.69084479  0.12541145     0.02500
H3242       H  0.98180178  0.69087025  0.16173421     0.06000
H3243       H  0.93349193  0.70834684  0.05170710     0.05000
H3244       H  0.92309211  0.73473363  0.07417384    -0.00700
H3245       H  0.93430137  0.70261513  0.08755053     0.00700
H3246       H  0.05172220  0.76846518  0.09755393     0.04400
H3247       H  0.05100914  0.77483832  0.06188039     0.06300
H3248       H  0.06270287  0.74258864  0.07486949     0.07200
C3249       C  0.96147501  0.75319329  0.85882391    -0.22400
C3250       C  0.95569301  0.73827154  0.88214372     0.09500
C3251       C  0.93146985  0.72346979  0.88359959     0.10000
C3252       C  0.91326025  0.72434709  0.86189550    -0.17300
C3253       C  0.91867947  0.73953653  0.83851866    -0.27800
C3254       C  0.94337404  0.75395675  0.83688867     0.18300
C3255       C  0.97455474  0.73933566  0.90544354     0.12300
C3256       C  0.92486446  0.70670302  0.90810193    -0.12100
H3257       H  0.89463815  0.71298198  0.86319096     0.12500
C3258       C  0.95047864  0.77096022  0.81266346    -0.22900
H3259       H  0.98012472  0.76455304  0.85796624     0.08200
C3260       C  0.99713042  0.72213669  0.90734390     0.04500
C3261       C  0.01314376  0.72264260  0.93081237    -0.20200
C3262       C  0.00684983  0.73972765  0.95255055    -0.12500
C3263       C  0.98469727  0.75766625  0.95013420     0.13200
C3264       C  0.96891905  0.75723377  0.92656853    -0.22900
C3265       C  0.00392652  0.70289909  0.88484424    -0.06000
H3266       H  0.03014854  0.70902380  0.93253988     0.14800
C3267       C  0.97784715  0.77778623  0.97193681    -0.16100
H3268       H  0.95170367  0.77058337  0.92476547     0.09100
H3269       H  0.95298298  0.75792753  0.79462073     0.06900
H3270       H  0.96971543  0.78203660  0.81567806     0.08100
H3271       H  0.93440138  0.78609455  0.80888419     0.07200
H3272       H  0.92370774  0.71981386  0.92623806     0.02100
H3273       H  0.94075805  0.69124331  0.91123185     0.02500
H3274       H  0.90525138  0.69612121  0.90585584     0.06000
H3275       H  0.02208474  0.69068801  0.88963155     0.05000
H3276       H  0.00793061  0.71440144  0.86603667    -0.00700
H3277       H  0.98681350  0.68887724  0.88135776     0.00700
H3278       H  0.99581404  0.79026873  0.97675755     0.04400
H3279       H  0.97084009  0.76720619  0.99036546     0.06300
H3280       H  0.96142632  0.79162435  0.96553794     0.07200
C3281       C  0.47018044  0.06437073  0.77452630    -0.22400
C3282       C  0.47428904  0.08466108  0.75530717     0.09500
C3283       C  0.49572439  0.08236012  0.73679674     0.10000
C3284       C  0.51167561  0.05891055  0.73694623    -0.17300
C3285       C  0.50666145  0.03787541  0.75531352    -0.27800
C3286       C  0.48638006  0.04122290  0.77512533     0.18300
C3287       C  0.45488576  0.10734473  0.75416297     0.12300
C3288       C  0.50124765  0.10432913  0.71653294    -0.12100
H3289       H  0.52746516  0.05656807  0.72204176     0.12500
C3290       C  0.48165466  0.02130159  0.79766022    -0.22900
H3291       H  0.45406580  0.06657605  0.78911481     0.08200
C3292       C  0.42989187  0.10442360  0.74091499     0.04500
C3293       C  0.41151414  0.12590074  0.74109391    -0.20200
C3294       C  0.41739861  0.15032015  0.75435710    -0.12500
C3295       C  0.44258437  0.15314217  0.76777808     0.13200
C3296       C  0.46100817  0.13156839  0.76740298    -0.22900
C3297       C  0.42262096  0.07856384  0.72661030    -0.06000
H3298       H  0.39240865  0.12359051  0.73069120     0.14800
C3299       C  0.44988016  0.17823471  0.78344631    -0.16100
H3300       H  0.48017872  0.13342106  0.77777370     0.09100
H3301       H  0.46141500  0.01203206  0.79533606     0.06900
H3302       H  0.48254379  0.03201533  0.81734453     0.08100
H3303       H  0.49697671  0.00509495  0.79857007     0.07200
H3304       H  0.50594972  0.12345106  0.72725208     0.02100
H3305       H  0.48328001  0.10740150  0.70349626     0.02500
H3306       H  0.51861398  0.09926120  0.70337021     0.06000
H3307       H  0.40237633  0.07970805  0.71710340     0.05000
H3308       H  0.42246243  0.06157392  0.74122580    -0.00700
H3309       H  0.43759229  0.07432228  0.71053859     0.00700
H3310       H  0.46942969  0.17598460  0.79418046     0.04400
H3311       H  0.43418075  0.18248689  0.79881587     0.06300
H3312       H  0.45185151  0.19569546  0.76956162     0.07200
C3313       C  0.49878936  0.89182119  0.76235114    -0.22400
C3314       C  0.47293102  0.89238159  0.75099139     0.09500
C3315       C  0.46345941  0.91613716  0.73855801     0.10000
C3316       C  0.47990149  0.93911150  0.73821666    -0.17300
C3317       C  0.50578504  0.93891086  0.74980151    -0.27800
C3318       C  0.51548486  0.91476202  0.76182221     0.18300
C3319       C  0.45572608  0.86804588  0.75242111     0.12300
C3320       C  0.43599114  0.91716698  0.72555148    -0.12100
H3321       H  0.47246297  0.95738272  0.72874497     0.12500
C3322       C  0.54288024  0.91311557  0.77493060    -0.22900
H3323       H  0.50581804  0.87337344  0.77180051     0.08200
C3324       C  0.45769530  0.84728043  0.73305317     0.04500
C3325       C  0.43903660  0.82600805  0.73355006    -0.20200
C3326       C  0.41833867  0.82531004  0.75278969    -0.12500
C3327       C  0.41723401  0.84546390  0.77306546     0.13200
C3328       C  0.43588578  0.86670361  0.77245453    -0.22900
C3329       C  0.47891695  0.84808463  0.71138860    -0.06000
H3330       H  0.43997566  0.81038852  0.71824043     0.14800
C3331       C  0.39713279  0.84500208  0.79589545    -0.16100
H3332       H  0.43472838  0.88257517  0.78749419     0.09100
H3333       H  0.55885448  0.91581580  0.75952424     0.06900
H3334       H  0.54627527  0.89320569  0.78467841     0.08100
H3335       H  0.54479102  0.92889918  0.79074064     0.07200
H3336       H  0.42021731  0.91316471  0.74089053     0.02100
H3337       H  0.43464207  0.90169418  0.70937989     0.02500
H3338       H  0.43185396  0.93719882  0.71636742     0.06000
H3339       H  0.47744329  0.83041695  0.69765917     0.05000
H3340       H  0.49923991  0.84799448  0.72079273    -0.00700
H3341       H  0.47653109  0.86667867  0.69909594     0.00700
H3342       H  0.40802589  0.84557351  0.81550327     0.04400
H3343       H  0.38444253  0.82663026  0.79606597     0.06300
H3344       H  0.38380767  0.86295292  0.79452940     0.07200
C3345       C  0.35338589  0.06912323  0.88610336    -0.22400
C3346       C  0.33707043  0.08908677  0.89747382     0.09500
C3347       C  0.32379201  0.08422612  0.92206083     0.10000
C3348       C  0.32704243  0.05911912  0.93476183    -0.17300
C3349       C  0.34289444  0.03863305  0.92311901    -0.27800
C3350       C  0.35648847  0.04391294  0.89851961     0.18300
C3351       C  0.33273059  0.11398069  0.88180497     0.12300
C3352       C  0.30605557  0.10541337  0.93464316    -0.12100
H3353       H  0.31664205  0.05527938  0.95359928     0.12500
C3354       C  0.37476608  0.02355506  0.88539426    -0.22900
H3355       H  0.36339109  0.07322456  0.86708974     0.08200
C3356       C  0.35117149  0.13560372  0.88260462     0.04500
C3357       C  0.34845093  0.15674035  0.86390676    -0.20200
C3358       C  0.32784341  0.15629831  0.84443025    -0.12500
C3359       C  0.30835422  0.13549797  0.84501287     0.13200
C3360       C  0.31122859  0.11444567  0.86355519    -0.22900
C3361       C  0.37400082  0.13586992  0.90265739    -0.06000
H3362       H  0.36313072  0.17294924  0.86366531     0.14800
C3363       C  0.28431776  0.13468898  0.82644850    -0.16100
H3364       H  0.29697800  0.09783884  0.86329728     0.09100
H3365       H  0.39060954  0.01722030  0.89991364     0.06900
H3366       H  0.38499185  0.03197365  0.86732277     0.08100
H3367       H  0.36287563  0.00587480  0.87856986     0.07200
H3368       H  0.28930298  0.11052829  0.92065825     0.02100
H3369       H  0.31803060  0.12388327  0.93880951     0.02500
H3370       H  0.29719571  0.09835429  0.95397345     0.06000
H3371       H  0.38659461  0.15421972  0.90050377     0.05000
H3372       H  0.38708537  0.11798172  0.89953300    -0.00700
H3373       H  0.36583998  0.13542472  0.92350480     0.00700
H3374       H  0.28568910  0.11634643  0.81369376     0.04400
H3375       H  0.28258037  0.15267703  0.81327338     0.06300
H3376       H  0.26558087  0.13360761  0.83860442     0.07200
C3377       C  0.36040612  0.91047723  0.88453698    -0.22400
C3378       C  0.34029317  0.89175269  0.89089088     0.09500
C3379       C  0.32365979  0.89600372  0.91349932     0.10000
C3380       C  0.32677279  0.91972314  0.92867827    -0.17300
C3381       C  0.34623159  0.93911706  0.92173800    -0.27800
C3382       C  0.36390461  0.93394790  0.89991783     0.18300
C3383       C  0.33627568  0.86852423  0.87269633     0.12300
C3384       C  0.30248054  0.87567634  0.92130052    -0.12100
H3385       H  0.31345798  0.92350395  0.94558253     0.12500
C3386       C  0.38722152  0.95204349  0.89280255    -0.22900
H3387       H  0.37344474  0.90674376  0.86738744     0.08200
C3388       C  0.31882829  0.87044179  0.85029585     0.04500
C3389       C  0.31665326  0.84858950  0.83254192    -0.20200
C3390       C  0.33151239  0.82485805  0.83668831    -0.12500
C3391       C  0.34882337  0.82282602  0.85943163     0.13200
C3392       C  0.35098185  0.84482514  0.87717000    -0.22900
C3393       C  0.30285317  0.89574150  0.84490080    -0.06000
H3394       H  0.30342822  0.85012547  0.81515093     0.14800
C3395       C  0.36594244  0.79817279  0.86452327    -0.16100
H3396       H  0.36447249  0.84375391  0.89438666     0.09100
H3397       H  0.38416209  0.96054882  0.87228009     0.06900
H3398       H  0.40613511  0.94007649  0.89288463     0.08100
H3399       H  0.39010448  0.96872575  0.90736463     0.07200
H3400       H  0.31218024  0.85596789  0.92572344     0.02100
H3401       H  0.28784792  0.87302168  0.90453012     0.02500
H3402       H  0.29118258  0.88212523  0.93952389     0.06000
H3403       H  0.29017778  0.89381956  0.82648487     0.05000
H3404       H  0.31675992  0.91304916  0.84200152    -0.00700
H3405       H  0.28936953  0.90003196  0.86221659     0.00700
H3406       H  0.37946260  0.80090820  0.88221871     0.04400
H3407       H  0.37872807  0.79402000  0.84664007     0.06300
H3408       H  0.35292242  0.78045657  0.86872537     0.07200
C3409       C  0.69115128  0.06393425  0.25156429    -0.22400
C3410       C  0.68495906  0.08406010  0.23272329     0.09500
C3411       C  0.66308541  0.08049980  0.21484431     0.10000
C3412       C  0.64759142  0.05676792  0.21648558    -0.17300
C3413       C  0.65419371  0.03627824  0.23499043    -0.27800
C3414       C  0.67618699  0.03999152  0.25283607     0.18300
C3415       C  0.70242935  0.10824389  0.23201137     0.12300
C3416       C  0.65647234  0.10150841  0.19388230    -0.12100
H3417       H  0.63074658  0.05385731  0.20281607     0.12500
C3418       C  0.68360677  0.01912864  0.27374141    -0.22900
H3419       H  0.70801840  0.06693934  0.26519330     0.08200
C3420       C  0.69808794  0.13022904  0.24955098     0.04500
C3421       C  0.71742417  0.15085570  0.25106718    -0.20200
C3422       C  0.74116898  0.14974500  0.23571253    -0.12500
C3423       C  0.74484557  0.12823745  0.21718434     0.13200
C3424       C  0.72537629  0.10773918  0.21563139    -0.22900
C3425       C  0.67331473  0.13160142  0.26700845    -0.06000
H3426       H  0.71439722  0.16749093  0.26495938     0.14800
C3427       C  0.76888779  0.12694010  0.19863913    -0.16100
H3428       H  0.72839974  0.09078846  0.20212474     0.09100
H3429       H  0.70021371  0.02620560  0.28704808     0.06900
H3430       H  0.69052583  0.00033593  0.26375757     0.08100
H3431       H  0.66589783  0.01467641  0.28665861     0.07200
H3432       H  0.67393455  0.10424699  0.18017307     0.02100
H3433       H  0.65188212  0.12103027  0.20385041     0.02500
H3434       H  0.63876100  0.09557811  0.18147716     0.06000
H3435       H  0.67299128  0.15021355  0.27951587     0.05000
H3436       H  0.67271026  0.11393606  0.28078522    -0.00700
H3437       H  0.65500641  0.13151729  0.25409352     0.00700
H3438       H  0.78763521  0.12391800  0.21048246     0.04400
H3439       H  0.77036767  0.14591059  0.18682856     0.06300
H3440       H  0.76729330  0.10992913  0.18410685     0.07200
C3441       C  0.68788121  0.90896306  0.21854621    -0.22400
C3442       C  0.68167401  0.88970618  0.23827891     0.09500
C3443       C  0.65907872  0.89362011  0.25505748     0.10000
C3444       C  0.64386847  0.91741865  0.25251440    -0.17300
C3445       C  0.65072106  0.93729637  0.23346822    -0.27800
C3446       C  0.67235523  0.93241256  0.21548138     0.18300
C3447       C  0.69979594  0.86615629  0.24162341     0.12300
C3448       C  0.65116213  0.87273221  0.27567524    -0.12100
H3449       H  0.62712429  0.92092330  0.26608267     0.12500
C3450       C  0.67917876  0.95090286  0.19228264    -0.22900
H3451       H  0.70496287  0.90560805  0.20534704     0.08200
C3452       C  0.69938827  0.84418442  0.22348147     0.04500
C3453       C  0.71798940  0.82307629  0.22685574    -0.20200
C3454       C  0.73709488  0.82364982  0.24780516    -0.12500
C3455       C  0.73671369  0.84517362  0.26663946     0.13200
C3456       C  0.71826898  0.86629777  0.26306304    -0.22900
C3457       C  0.67947794  0.84313511  0.20051432    -0.06000
H3458       H  0.71824805  0.80652651  0.21252619     0.14800
C3459       C  0.75492320  0.84626822  0.29107452    -0.16100
H3460       H  0.71829061  0.88307716  0.27713194     0.09100
H3461       H  0.67952721  0.93907525  0.17323152     0.06900
H3462       H  0.69938234  0.95994915  0.19560073     0.08100
H3463       H  0.66429166  0.96727110  0.18928755     0.07200
H3464       H  0.66762980  0.87002766  0.29062868     0.02100
H3465       H  0.64719773  0.85318246  0.26543322     0.02500
H3466       H  0.63267464  0.87867892  0.28677277     0.06000
H3467       H  0.68160405  0.82432160  0.18851046     0.05000
H3468       H  0.68271385  0.86052425  0.18676815    -0.00700
H3469       H  0.65864806  0.84392291  0.20859738     0.00700
H3470       H  0.76851046  0.86401070  0.28956317     0.04400
H3471       H  0.76733966  0.82789182  0.29365604     0.06300
H3472       H  0.74250314  0.84828932  0.30959022     0.07200
C3473       C  0.80949945  0.13231155  0.11656097    -0.22400
C3474       C  0.82712483  0.11037103  0.11881454     0.09500
C3475       C  0.84742781  0.11041583  0.13877986     0.10000
C3476       C  0.84890166  0.13200198  0.15699057    -0.17300
C3477       C  0.83084807  0.15372795  0.15528935    -0.27800
C3478       C  0.81117920  0.15416611  0.13452583     0.18300
C3479       C  0.82293322  0.08651992  0.10146853     0.12300
C3480       C  0.86713624  0.08738835  0.14114797    -0.12100
H3481       H  0.86400840  0.13179924  0.17284528     0.12500
C3482       C  0.79115406  0.17692211  0.13197911    -0.22900
H3483       H  0.79397956  0.13196128  0.10112472     0.08200
C3484       C  0.80572191  0.06545388  0.10967032     0.04500
C3485       C  0.80455848  0.04176631  0.09429567    -0.20200
C3486       C  0.82042173  0.03855568  0.07105964    -0.12500
C3487       C  0.83776008  0.05982562  0.06289511     0.13200
C3488       C  0.83824398  0.08380817  0.07794121    -0.22900
C3489       C  0.78897147  0.06785002  0.13491395    -0.06000
H3490       H  0.79128457  0.02555698  0.10056375     0.14800
C3491       C  0.85740126  0.05755681  0.03978761    -0.16100
H3492       H  0.85175435  0.09999246  0.07211137     0.09100
H3493       H  0.77639519  0.17322490  0.11549375     0.06900
H3494       H  0.80182016  0.19605312  0.12735813     0.08100
H3495       H  0.77976499  0.17923046  0.15109211     0.07200
H3496       H  0.87876012  0.08548637  0.12211190     0.02100
H3497       H  0.85615490  0.06824236  0.14496396     0.02500
H3498       H  0.88165628  0.09056518  0.15794783     0.06000
H3499       H  0.77673033  0.04943197  0.13852077     0.05000
H3500       H  0.77504132  0.08528381  0.13306068    -0.00700
H3501       H  0.80227559  0.07093550  0.15270453     0.00700
H3502       H  0.85110100  0.07122212  0.02316478     0.04400
H3503       H  0.85952274  0.03682467  0.03182978     0.06300
H3504       H  0.87779361  0.06364713  0.04679086     0.07200
C3505       C  0.84338252  0.87064840  0.14431970    -0.22400
C3506       C  0.82147671  0.87113658  0.12644032     0.09500
C3507       C  0.80319037  0.84937144  0.12580055     0.10000
C3508       C  0.80710381  0.82754417  0.14338151    -0.17300
C3509       C  0.82860085  0.82735047  0.16180896    -0.27800
C3510       C  0.84726827  0.84895965  0.16204179     0.18300
C3511       C  0.81828276  0.89466173  0.10843653     0.12300
C3512       C  0.77917726  0.84960657  0.10715912    -0.12100
H3513       H  0.79272911  0.81105351  0.14350806     0.12500
C3514       C  0.87169184  0.84960709  0.18024763    -0.22900
H3515       H  0.85751670  0.88735151  0.14444557     0.08200
C3516       C  0.80661822  0.91884275  0.11766266     0.04500
C3517       C  0.80528627  0.94105945  0.10021561    -0.20200
C3518       C  0.81558999  0.93980469  0.07376870    -0.12500
C3519       C  0.82691837  0.91517697  0.06447205     0.13200
C3520       C  0.82801366  0.89293472  0.08200866    -0.22900
C3521       C  0.79578467  0.92122944  0.14597201    -0.06000
H3522       H  0.79640810  0.95967713  0.10746792     0.14800
C3523       C  0.83895765  0.91223267  0.03670052    -0.16100
H3524       H  0.83699675  0.87415746  0.07529546     0.09100
H3525       H  0.87022281  0.86703474  0.19426807     0.06900
H3526       H  0.89013500  0.85191849  0.16780758     0.08100
H3527       H  0.87420044  0.83095828  0.19232877     0.07200
H3528       H  0.78601675  0.85068143  0.08586454     0.02100
H3529       H  0.76635510  0.86740422  0.11165486     0.02500
H3530       H  0.76667297  0.83115795  0.10951991     0.06000
H3531       H  0.78707661  0.94151277  0.14984309     0.05000
H3532       H  0.81224427  0.91783675  0.16080208    -0.00700
H3533       H  0.77973353  0.90595893  0.14919680     0.00700
H3534       H  0.84813371  0.89200524  0.03371207     0.04400
H3535       H  0.85503937  0.92752951  0.03374480     0.06300
H3536       H  0.82307631  0.91467360  0.02108202     0.07200
C3537       C  0.80329725  0.38564942  0.07969128    -0.22400
C3538       C  0.82578412  0.39018722  0.09619088     0.09500
C3539       C  0.84438072  0.41061000  0.08948818     0.10000
C3540       C  0.84090903  0.42500158  0.06529873    -0.17300
C3541       C  0.81920018  0.41934025  0.04792412    -0.27800
C3542       C  0.79955536  0.40028197  0.05577376     0.18300
C3543       C  0.82997943  0.37210530  0.11949096     0.12300
C3544       C  0.86774069  0.41710064  0.10784507    -0.12100
H3545       H  0.85550828  0.44024666  0.05960478     0.12500
C3546       C  0.77420760  0.39601644  0.03952917    -0.22900
H3547       H  0.78879217  0.37033563  0.08545012     0.08200
C3548       C  0.81579826  0.37561693  0.14383383     0.04500
C3549       C  0.81816186  0.35604543  0.16413706    -0.20200
C3550       C  0.83429796  0.33302280  0.16050936    -0.12500
C3551       C  0.84980874  0.33044001  0.13663408     0.13200
C3552       C  0.84701109  0.34982649  0.11623863    -0.22900
C3553       C  0.79779789  0.39969903  0.14810075    -0.06000
H3554       H  0.80646079  0.35818731  0.18247326     0.14800
C3555       C  0.86986808  0.30800437  0.13208659    -0.16100
H3556       H  0.85810028  0.34749024  0.09753444     0.09100
H3557       H  0.76032860  0.38157380  0.04955138     0.06900
H3558       H  0.77915093  0.38779326  0.01932443     0.08100
H3559       H  0.76342765  0.41552788  0.03720795     0.07200
H3560       H  0.88088912  0.39912185  0.11010846     0.02100
H3561       H  0.86008791  0.42313608  0.12801726     0.02500
H3562       H  0.88012950  0.43394483  0.09980205     0.06000
H3563       H  0.78833383  0.39944353  0.16840442     0.05000
H3564       H  0.78146981  0.39980898  0.13274937    -0.00700
H3565       H  0.80977065  0.41853862  0.14624006     0.00700
H3566       H  0.86234698  0.29428560  0.11601551     0.04400
H3567       H  0.87418447  0.29616559  0.15054406     0.06300
H3568       H  0.88942142  0.31671179  0.12556216     0.07200
C3569       C  0.83934866  0.34309454  0.88355843    -0.22400
C3570       C  0.81991727  0.36338777  0.88036636     0.09500
C3571       C  0.80503209  0.36500823  0.85615340     0.10000
C3572       C  0.80902351  0.34538094  0.83614886    -0.17300
C3573       C  0.82768228  0.32433582  0.83976420    -0.27800
C3574       C  0.84381596  0.32378635  0.86336558     0.18300
C3575       C  0.81555296  0.38239993  0.90298728     0.12300
C3576       C  0.78468862  0.38710441  0.85164244    -0.12100
H3577       H  0.79709888  0.34612870  0.81779689     0.12500
C3578       C  0.86653477  0.30397581  0.86756654    -0.22900
H3579       H  0.85126256  0.34245677  0.90193614     0.08200
C3580       C  0.80071268  0.37467487  0.92594196     0.04500
C3581       C  0.80024010  0.39172668  0.94857207    -0.20200
C3582       C  0.81377323  0.41669202  0.94857583    -0.12500
C3583       C  0.82719672  0.42512037  0.92467057     0.13200
C3584       C  0.82809833  0.40767216  0.90232128    -0.22900
C3585       C  0.78544030  0.34838376  0.92646934    -0.06000
H3586       H  0.78939858  0.38539150  0.96645632     0.14800
C3587       C  0.84156309  0.45186549  0.92265208    -0.16100
H3588       H  0.83922068  0.41344856  0.88440976     0.09100
H3589       H  0.86190139  0.29071836  0.88502482     0.06900
H3590       H  0.88543853  0.31519425  0.87190067     0.08100
H3591       H  0.87055220  0.29121694  0.84966893     0.07200
H3592       H  0.79488412  0.40704321  0.85226860     0.02100
H3593       H  0.76906013  0.38632744  0.86762047     0.02500
H3594       H  0.77451283  0.38512099  0.83173142     0.06000
H3595       H  0.77437511  0.34562745  0.94573862     0.05000
H3596       H  0.79957509  0.33120096  0.92409169    -0.00700
H3597       H  0.77055056  0.34801493  0.90969045     0.00700
H3598       H  0.85705389  0.45350554  0.93877864     0.04400
H3599       H  0.82681420  0.46859208  0.92445932     0.06300
H3600       H  0.85188951  0.45432782  0.90292969     0.07200
C3601       C  0.97380455  0.27815647  0.08193547    -0.22400
C3602       C  0.98050669  0.25812732  0.10064903     0.09500
C3603       C  0.00322322  0.24164490  0.09641797     0.10000
C3604       C  0.01791820  0.24456447  0.07244434    -0.17300
C3605       C  0.01020910  0.26361092  0.05287006    -0.27800
C3606       C  0.98876678  0.28156306  0.05835034     0.18300
C3607       C  0.96189566  0.25356354  0.12323252     0.12300
C3608       C  0.01152956  0.22078588  0.11693211    -0.12100
H3609       H  0.03470881  0.23116371  0.06845210     0.12500
C3610       C  0.98152711  0.30496152  0.04033369    -0.22900
H3611       H  0.95658118  0.29109031  0.08568509     0.08200
C3612       C  0.96171870  0.27047871  0.14608447     0.04500
C3613       C  0.94151635  0.26706168  0.16550133    -0.20200
C3614       C  0.92134244  0.24746670  0.16210732    -0.12500
C3615       C  0.92188983  0.23021230  0.13934349     0.13200
C3616       C  0.94233752  0.23343938  0.12023216    -0.22900
C3617       C  0.98267105  0.29217406  0.14975191    -0.06000
H3618       H  0.94099546  0.28022218  0.18298873     0.14800
C3619       C  0.90130807  0.20814295  0.13523501    -0.16100
H3620       H  0.94270408  0.22070177  0.10242622     0.09100
H3621       H  0.98184025  0.32389624  0.05232832     0.06900
H3622       H  0.96091412  0.30202881  0.03210161     0.08100
H3623       H  0.99589455  0.30779979  0.02350391     0.07200
H3624       H  0.99511772  0.20581997  0.11968975     0.02100
H3625       H  0.01578188  0.23078568  0.13655468     0.02500
H3626       H  0.02995058  0.20978808  0.11057214     0.06000
H3627       H  0.97973890  0.30341993  0.16890802     0.05000
H3628       H  0.98151842  0.30683073  0.13283318    -0.00700
H3629       H  0.00304252  0.28293201  0.15015322     0.00700
H3630       H  0.88105896  0.21700155  0.13183807     0.04400
H3631       H  0.90081237  0.19475783  0.15321909     0.06300
H3632       H  0.90608337  0.19549212  0.11735740     0.07200
C3633       C  0.96008465  0.26169085  0.92955145    -0.22400
C3634       C  0.97181402  0.25047808  0.90655992     0.09500
C3635       C  0.99936095  0.24387947  0.90662073     0.10000
C3636       C  0.01453630  0.24785087  0.93023675    -0.17300
C3637       C  0.00276255  0.25825640  0.95394153    -0.27800
C3638       C  0.97503296  0.26575869  0.95324591     0.18300
C3639       C  0.95450229  0.24553082  0.88279509     0.12300
C3640       C  0.01252322  0.23217383  0.88188577    -0.12100
H3641       H  0.03560989  0.24217678  0.93022969     0.12500
C3642       C  0.96075280  0.27862626  0.97678017    -0.22900
H3643       H  0.93890031  0.26703052  0.92894428     0.08200
C3644       C  0.93735118  0.22286231  0.88156540     0.04500
C3645       C  0.91975709  0.22001535  0.85957956    -0.20200
C3646       C  0.91909418  0.23925732  0.83880858    -0.12500
C3647       C  0.93660276  0.26186089  0.83992483     0.13200
C3648       C  0.95420606  0.26457037  0.86192182    -0.22900
C3649       C  0.93760452  0.20177586  0.90349047    -0.06000
H3650       H  0.90622785  0.20283849  0.85870072     0.14800
C3651       C  0.93646924  0.28421983  0.81922786    -0.16100
H3652       H  0.96727402  0.28207952  0.86321515     0.09100
H3653       H  0.93977850  0.28454450  0.97162558     0.06900
H3654       H  0.97159258  0.29725773  0.98277980     0.08100
H3655       H  0.95938769  0.26426630  0.99391266     0.07200
H3656       H  0.01087867  0.24665253  0.86484832     0.02100
H3657       H  0.00238081  0.21300036  0.87623158     0.02500
H3658       H  0.03421355  0.22787128  0.88534080     0.06000
H3659       H  0.92322994  0.18513475  0.89914662     0.05000
H3660       H  0.93187795  0.21102845  0.92306457    -0.00700
H3661       H  0.95810037  0.19297261  0.90528136     0.00700
H3662       H  0.93238773  0.30378659  0.82936755     0.04400
H3663       H  0.92093501  0.28165485  0.80343540     0.06300
H3664       H  0.95647070  0.28533364  0.80928428     0.07200
C3665       C  0.34889926  0.59061605  0.08144082    -0.22400
C3666       C  0.32656054  0.59044175  0.09866147     0.09500
C3667       C  0.30523564  0.57221674  0.09367768     0.10000
C3668       C  0.30616641  0.55554574  0.07071648    -0.17300
C3669       C  0.32788669  0.55678399  0.05263140    -0.27800
C3670       C  0.35011178  0.57366064  0.05881479     0.18300
C3671       C  0.32550622  0.61054532  0.12086113     0.12300
C3672       C  0.28142899  0.57056103  0.11240294    -0.12100
H3673       H  0.28931360  0.54234693  0.06623712     0.12500
C3674       C  0.37573781  0.57381091  0.04259258    -0.22900
H3675       H  0.36547293  0.60429304  0.08557477     0.08200
C3676       C  0.34220094  0.60847851  0.14388128     0.04500
C3677       C  0.34154609  0.62897307  0.16343777    -0.20200
C3678       C  0.32496403  0.65174723  0.16031404    -0.12500
C3679       C  0.30797148  0.65363962  0.13735888     0.13200
C3680       C  0.30846713  0.63294667  0.11796883    -0.22900
C3681       C  0.36064279  0.58465936  0.14788135    -0.06000
H3682       H  0.35455324  0.62751594  0.18100079     0.14800
C3683       C  0.28885388  0.67699870  0.13340946    -0.16100
H3684       H  0.29579969  0.63441759  0.10016332     0.09100
H3685       H  0.39301206  0.56906985  0.05607334     0.06900
H3686       H  0.37896091  0.59414555  0.03375882     0.08100
H3687       H  0.37576470  0.55856043  0.02625526     0.07200
H3688       H  0.27066126  0.59017656  0.11283173     0.02100
H3689       H  0.28844127  0.56550600  0.13310282     0.02500
H3690       H  0.26687850  0.55479834  0.10588720     0.06000
H3691       H  0.37172308  0.58590079  0.16735996     0.05000
H3692       H  0.37574598  0.58386114  0.13142378    -0.00700
H3693       H  0.34867931  0.56572053  0.14784609     0.00700
H3694       H  0.30029878  0.69601436  0.13052558     0.04400
H3695       H  0.27546560  0.67894359  0.15124354     0.06300
H3696       H  0.27590545  0.67417527  0.11529842     0.07200
C3697       C  0.34770540  0.59651432  0.92661607    -0.22400
C3698       C  0.32989105  0.59101781  0.90542804     0.09500
C3699       C  0.31213501  0.56890314  0.90736189     0.10000
C3700       C  0.31158605  0.55356854  0.93125369    -0.17300
C3701       C  0.32849278  0.55982641  0.95326273    -0.27800
C3702       C  0.34738152  0.58119922  0.95045354     0.18300
C3703       C  0.32911718  0.60983063  0.88219895     0.12300
C3704       C  0.29373031  0.56167366  0.88423847    -0.12100
H3705       H  0.29737636  0.53704600  0.93296411     0.12500
C3706       C  0.36765433  0.58788704  0.97209799    -0.22900
H3707       H  0.36153516  0.61335076  0.92468194     0.08200
C3708       C  0.31162685  0.63226911  0.88220393     0.04500
C3709       C  0.31182022  0.65006033  0.86021360    -0.20200
C3710       C  0.32951038  0.64629749  0.83845918    -0.12500
C3711       C  0.34755558  0.62415843  0.83876969     0.13200
C3712       C  0.34695863  0.60602857  0.86062317    -0.22900
C3713       C  0.29323824  0.63780124  0.90574444    -0.06000
H3714       H  0.29825527  0.66721652  0.86011962     0.14800
C3715       C  0.36833694  0.62034352  0.81692112    -0.16100
H3716       H  0.36074890  0.58907574  0.86115593     0.09100
H3717       H  0.35722034  0.59624179  0.98999152     0.06900
H3718       H  0.38233415  0.60336554  0.96527279     0.08100
H3719       H  0.37919331  0.56949645  0.97761565     0.07200
H3720       H  0.30593757  0.55698712  0.86606940     0.02100
H3721       H  0.28010519  0.57882570  0.87960801     0.02500
H3722       H  0.28112923  0.54376533  0.88896675     0.06000
H3723       H  0.28095170  0.65626601  0.90250983     0.05000
H3724       H  0.30541148  0.64072991  0.92435835    -0.00700
H3725       H  0.27928750  0.62056224  0.90873858     0.00700
H3726       H  0.38185013  0.60301532  0.82130968     0.04400
H3727       H  0.38102307  0.63874717  0.81524124     0.06300
H3728       H  0.35831185  0.61634804  0.79727886     0.07200
C3729       C  0.19282400  0.71690872  0.07159578    -0.22400
C3730       C  0.18700031  0.73642327  0.09119064     0.09500
C3731       C  0.16429069  0.75321648  0.08794857     0.10000
C3732       C  0.14767133  0.74997057  0.06518249    -0.17300
C3733       C  0.15377390  0.73089710  0.04514056    -0.27800
C3734       C  0.17669358  0.71409202  0.04842302     0.18300
C3735       C  0.20515703  0.73906691  0.11485356     0.12300
C3736       C  0.15780377  0.77470889  0.10841829    -0.12100
H3737       H  0.13033549  0.76302109  0.06256368     0.12500
C3738       C  0.18411415  0.69288672  0.02788814    -0.22900
H3739       H  0.21033359  0.70410237  0.07431223     0.08200
C3740       C  0.20274169  0.72190655  0.13743510     0.04500
C3741       C  0.22075077  0.72480698  0.15914806    -0.20200
C3742       C  0.24146934  0.74404846  0.15855580    -0.12500
C3743       C  0.24338787  0.76177702  0.13616535     0.13200
C3744       C  0.22517120  0.75901693  0.11457811    -0.22900
C3745       C  0.18127286  0.70044583  0.13847471    -0.06000
H3746       H  0.21918933  0.71143998  0.17627798     0.14800
C3747       C  0.26405464  0.78410527  0.13522492    -0.16100
H3748       H  0.22663906  0.77232458  0.09726221     0.09100
H3749       H  0.20121925  0.68022271  0.03489775     0.06900
H3750       H  0.19041343  0.70260048  0.00874363     0.08100
H3751       H  0.16665301  0.67937648  0.02411586     0.07200
H3752       H  0.17469406  0.78935740  0.10969948     0.02100
H3753       H  0.15469276  0.76531860  0.12852581     0.02500
H3754       H  0.13925975  0.78600656  0.10293356     0.06000
H3755       H  0.18201173  0.68890523  0.15768489     0.05000
H3756       H  0.18408089  0.68600590  0.12157196    -0.00700
H3757       H  0.16107954  0.70992666  0.13673192     0.00700
H3758       H  0.26132170  0.79715429  0.11718268     0.04400
H3759       H  0.28468698  0.77559068  0.13426085     0.06300
H3760       H  0.26214597  0.79702777  0.15344908     0.07200
C3761       C  0.22440512  0.74871944  0.88183772    -0.22400
C3762       C  0.20031918  0.73467437  0.87765821     0.09500
C3763       C  0.19519961  0.72243258  0.85249227     0.10000
C3764       C  0.21486926  0.72375402  0.83217973    -0.17300
C3765       C  0.23965093  0.73685412  0.83664081    -0.27800
C3766       C  0.24422631  0.74996244  0.86178300     0.18300
C3767       C  0.18165336  0.73176209  0.90070032     0.12300
C3768       C  0.16926417  0.70748733  0.84740102    -0.12100
H3769       H  0.21117140  0.71381337  0.81302680     0.12500
C3770       C  0.26963092  0.76568611  0.86777143    -0.22900
H3771       H  0.22794556  0.75820518  0.90126215     0.08200
C3772       C  0.18697946  0.71296382  0.92140568     0.04500
C3773       C  0.17026068  0.71229886  0.94409793    -0.20200
C3774       C  0.14835604  0.73000847  0.94667261    -0.12500
C3775       C  0.14244310  0.74825708  0.92545770     0.13200
C3776       C  0.15930554  0.74894003  0.90268174    -0.22900
C3777       C  0.21051527  0.69381424  0.91970843    -0.06000
H3778       H  0.17461923  0.69815552  0.96022634     0.14800
C3779       C  0.11929702  0.76784229  0.92721959    -0.16100
H3780       H  0.15548783  0.76335143  0.88665001     0.09100
H3781       H  0.28715866  0.75185551  0.86914091     0.06900
H3782       H  0.26838372  0.77650834  0.88737175     0.08100
H3783       H  0.27307505  0.78100283  0.85176698     0.07200
H3784       H  0.15195943  0.72148666  0.84969848     0.02100
H3785       H  0.16720846  0.69069630  0.86210950     0.02500
H3786       H  0.16852138  0.69884206  0.82672049     0.06000
H3787       H  0.21142521  0.68008840  0.93742748     0.05000
H3788       H  0.22967369  0.70534430  0.91898312    -0.00700
H3789       H  0.20869354  0.68125313  0.90122634     0.00700
H3790       H  0.11846174  0.78139985  0.90936746     0.04400
H3791       H  0.12149989  0.78060459  0.94552617     0.06300
H3792       H  0.09995661  0.75663449  0.92811701     0.07200
loop_ 
_geom_bond_atom_site_label_1 
_geom_bond_atom_site_label_2 
_geom_bond_distance 
_geom_bond_site_symmetry_2 
_ccdc_geom_bond_type 
C1            N2   1.357       .  A
C1            N6   1.355       .  A
C1         C3774   1.478       .  S
N2            C3   1.360       .  A
C3            N4   1.363   1_556  A
C3           C51   1.473   1_556  S
N4            C5   1.362       .  A
C5            N6   1.354   1_554  A
C5         C3733   1.482       .  S
C7            N8   1.359       .  A
C7           N12   1.358       .  A
C7         C3669   1.481       .  S
N8            C9   1.361       .  A
C9           N10   1.361   1_554  A
C9           C69   1.474       .  S
N10          C11   1.361       .  A
C11          N12   1.358   1_556  A
C11        C3701   1.491       .  S
C13          N14   1.351       .  A
C13          N18   1.355       .  A
C13        C3605   1.470       .  S
N14          C15   1.355       .  A
C15          N16   1.360   1_554  A
C15          C65   1.462   1_554  S
N16          C17   1.363       .  A
C17          N18   1.356   1_556  A
C17        C3637   1.494       .  S
C19          N20   1.357       .  A
C19          N24   1.361       .  A
C19        C3582   1.490       .  S
N20          C21   1.357       .  A
C21          N22   1.356   1_556  A
C21          C57   1.464       .  S
N22          C23   1.355       .  A
C23          N24   1.360   1_554  A
C23        C3541   1.474       .  S
C25          N26   1.356   1_545  A
C25          N30   1.356       .  A
C25        C3486   1.476       .  S
N26          C27   1.358       .  A
C27          N28   1.359       .  A
C27        C3518   1.487       .  S
N28          C29   1.359       .  A
C29          N30   1.356   1_565  A
C29          C77   1.465   1_554  S
C31          N32   1.358       .  A
C31          N36   1.357   1_545  A
C31        C3413   1.478       .  S
N32          C33   1.360   1_545  A
C33          N34   1.361       .  A
C33          C93   1.469       .  S
N34          C35   1.359       .  A
C35          N36   1.357       .  A
C35        C3445   1.481       .  S
C37          N38   1.359       .  A
C37          N42   1.358       .  A
C37        C3381   1.477       .  S
N38          C39   1.359   1_565  A
C39          N40   1.357       .  A
C39        C3349   1.484       .  S
N40          C41   1.357   1_545  A
C41          N42   1.358       .  A
C41          C87   1.467   1_556  S
C43          N44   1.357       .  A
C43          N48   1.358       .  A
C43        C3317   1.485       .  S
N44          C45   1.358       .  A
C45          N46   1.360   1_565  A
C45          C81   1.466       .  S
N46          C47   1.357       .  A
C47          N48   1.358   1_545  A
C47        C3285   1.479       .  S
C49          N50   1.360       .  A
C49          N54   1.357       .  A
C49        C3230   1.488       .  S
N50          C51   1.362       .  A
C51          N52   1.362   1_554  A
N52          C53   1.358       .  A
C53          N54   1.353   1_556  A
C53        C3262   1.484       .  S
C55          N56   1.357       .  A
C55          N60   1.356   1_554  A
C55        C3157   1.486       .  S
N56          C57   1.359   1_554  A
C57          N58   1.359       .  A
N58          C59   1.357       .  A
C59          N60   1.356       .  A
C59        C3189   1.478       .  S
C61          N62   1.358       .  A
C61          N66   1.358       .  A
C61        C3134   1.477       .  S
N62          C63   1.358   1_556  A
C63          N64   1.353       .  A
C63        C3102   1.486       .  S
N64          C65   1.356   1_554  A
C65          N66   1.357       .  A
C67          N68   1.361       .  A
C67          N72   1.356       .  A
C67        C3061   1.489       .  S
N68          C69   1.360   1_556  A
C69          N70   1.360       .  A
N70          C71   1.359       .  A
C71          N72   1.356   1_554  A
C71        C3029   1.478       .  S
C73          N74   1.353       .  A
C73          N78   1.357       .  A
C73        C2997   1.474       .  S
N74          C75   1.351   1_565  A
C75          N76   1.358       .  A
C75        C2965   1.479       .  S
N76          C77   1.361   1_545  A
C77          N78   1.360       .  A
C79          N80   1.357       .  A
C79          N84   1.353   1_545  A
C79        C2901   1.473       .  S
N80          C81   1.359   1_545  A
C81          N82   1.361       .  A
N82          C83   1.359       .  A
C83          N84   1.354       .  A
C83        C2933   1.475       .  S
C85          N86   1.357       .  A
C85          N90   1.355   1_545  A
C85        C2837   1.482       .  S
N86          C87   1.361   1_545  A
C87          N88   1.360       .  A
N88          C89   1.358       .  A
C89          N90   1.353       .  A
C89        C2878   1.472       .  S
C91          N92   1.357       .  A
C91          N96   1.353       .  A
C91        C2805   1.474       .  S
N92          C93   1.360       .  A
C93          N94   1.361   1_565  A
N94          C95   1.358       .  A
C95          N96   1.355   1_545  A
C95        C2773   1.484       .  S
C97          N98   1.357       .  A
C97         N102   1.357       .  A
C97        C2750   1.485       .  S
N98          C99   1.358       .  A
C99         N100   1.358       .  A
C99         C113   1.465   1_545  S
N100        C101   1.356       .  A
C101        N102   1.356       .  A
C101       C2709   1.477       .  S
C103        N104   1.357       .  A
C103        N108   1.357       .  A
C103       C2677   1.486       .  S
N104        C105   1.358       .  A
C105        N106   1.360       .  A
C105        C143   1.469       .  S
N106        C107   1.359       .  A
C107        N108   1.357       .  A
C107       C2645   1.492       .  S
C109        N110   1.354       .  A
C109        N114   1.356       .  A
C109       C2590   1.479       .  S
N110        C111   1.355       .  A
C111        N112   1.359       .  A
C111       C2613   1.484       .  S
N112        C113   1.360       .  A
C113        N114   1.358       .  A
C115        N116   1.354       .  A
C115        N120   1.354       .  A
C115       C2558   1.475       .  S
N116        C117   1.358       .  A
C117        N118   1.358       .  A
C117        C129   1.463       .  S
N118        C119   1.360       .  A
C119        N120   1.355       .  A
C119       C2517   1.482       .  S
C121        N122   1.359       .  A
C121        N126   1.356       .  A
C121       C2494   1.490       .  S
N122        C123   1.361       .  A
C123        N124   1.357       .  A
C123        C135   1.468   1_565  S
N124        C125   1.358       .  A
C125        N126   1.358       .  A
C125       C2462   1.482       .  S
C127        N128   1.359       .  A
C127        N132   1.362       .  A
C127       C2421   1.490       .  S
N128        C129   1.358       .  A
C129        N130   1.354       .  A
N130        C131   1.352       .  A
C131        N132   1.360       .  A
C131       C2389   1.487       .  S
C133        N134   1.362       .  A
C133        N138   1.357       .  A
C133       C2357   1.491       .  S
N134        C135   1.363       .  A
C135        N136   1.357       .  A
N136        C137   1.354       .  A
C137        N138   1.353       .  A
C137       C2334   1.469       .  S
C139        N140   1.357       .  A
C139        N144   1.357       .  A
C139       C2270   1.478       .  S
N140        C141   1.357       .  A
C141        N142   1.360       .  A
C141       C2293   1.489       .  S
N142        C143   1.362       .  A
C143        N144   1.359       .  A
C145        N146   1.357       .  A
C145        N150   1.357       .  A
C145       C2206   1.479       .  S
N146        C147   1.355       .  A
C147        N148   1.356       .  A
C147       C2229   1.475       .  S
N148        C149   1.356       .  A
C149        N150   1.358       .  A
C149        C291   1.463       .  S
C151        N152   1.355       .  A
C151        N156   1.359       .  A
C151       C2165   1.484       .  S
N152        C153   1.355       .  A
C153        N154   1.361       .  A
C153       C2142   1.485       .  S
N154        C155   1.362       .  A
C155        N156   1.361       .  A
C155        C363   1.473       .  S
O157       Zr193   2.422       .  S
O157        C168   1.288       .  A
O158       Zr192   2.439       .  S
O158        C169   1.292       .  A
O159       Zr165   2.445       .  S
O159        C170   1.293       .  A
O160       Zr165   2.435       .  S
O160        C171   1.292       .  A
O161       Zr195   2.438       .  S
O161        C171   1.292       .  A
O162       Zr194   2.450       .  S
O162        C170   1.295       .  A
O163       Zr165   2.443       .  S
O163        C169   1.293       .  A
O164       Zr165   2.462       .  S
O164        C168   1.296       .  A
Zr165       O166   2.349       .  S
Zr165       O167   2.340       .  S
Zr165       O175   2.344       .  S
Zr165       O173   2.347       .  S
O166       Zr192   2.342       .  S
O166       Zr195   2.341       .  S
O167       Zr193   2.340       .  S
O167       Zr194   2.343       .  S
C168       C3742   1.481       .  S
C169       C2430   1.474       .  S
C170       C2133   1.485       .  S
C171       C2485   1.472       .  S
H172        O173   0.965       .  S
O173       Zr192   2.339       .  S
O173       Zr194   2.341       .  S
H174        O175   0.966       .  S
O175       Zr193   2.343       .  S
O175       Zr195   2.345       .  S
O176       Zr192   2.432       .  S
O176        C199   1.291       .  A
O177       Zr193   2.435       .  S
O177        C200   1.291       .  A
O178       Zr194   2.430       .  S
O178        C201   1.291       .  A
O179       Zr195   2.443       .  S
O179        C202   1.293       .  A
O180       Zr195   2.433       .  S
O180        C203   1.292       .  A
O181       Zr194   2.438       .  S
O181        C204   1.293       .  A
O182       Zr196   2.422       .  S
O182        C205   1.290       .  A
O183       Zr196   2.431       .  S
O183        C206   1.290       .  A
O184       Zr194   2.454       .  S
O184        C205   1.295       .  A
O185       Zr195   2.435       .  S
O185        C206   1.292       .  A
O186       Zr192   2.432       .  S
O186        C201   1.291       .  A
O187       Zr193   2.438       .  S
O187        C204   1.292       .  A
O188       Zr193   2.434       .  S
O188        C203   1.290       .  A
O189       Zr192   2.439       .  S
O189        C202   1.292       .  A
O190       Zr196   2.441       .  S
O190        C199   1.292       .  A
O191       Zr196   2.439       .  S
O191        C200   1.292       .  A
Zr192       O198   2.340       .  S
Zr192       O210   2.330       .  S
Zr193       O197   2.340       .  S
Zr193       O208   2.335       .  S
Zr194       O198   2.342       .  S
Zr194       O208   2.338       .  S
Zr195       O197   2.344       .  S
Zr195       O210   2.329       .  S
Zr196       O197   2.337       .  S
Zr196       O198   2.341       .  S
Zr196       O210   2.331       .  S
Zr196       O208   2.339       .  S
C199       C2069   1.477       .  S
C200       C2046   1.474       .  S
C201       C2197   1.473       .  S
C202       C2101   1.479       .  S
C203       C2869   1.485       .  S
C204       C3678   1.481       .  S
C205       C2005   1.476       .  S
C206       C2814   1.474       .  S
H207        O208   0.966       .  S
H209        O210   0.965       .  S
C211        N212   1.360       .  A
C211        N216   1.357       .  A
C211       C1973   1.485       .  S
N212        C213   1.362       .  A
C213        N214   1.360       .  A
C213        C605   1.474       .  S
N214        C215   1.359       .  A
C215        N216   1.358       .  A
C215       C1941   1.486       .  S
C217        N218   1.359       .  A
C217        N222   1.361       .  A
C217       C1909   1.486       .  S
N218        C219   1.359       .  A
C219        N220   1.356       .  A
C219       C1877   1.472       .  S
N220        C221   1.357       .  A
C221        N222   1.360       .  A
C221        C287   1.469   1_545  S
O223       Zr259   2.439       .  S
O223        C234   1.293       .  A
O224       Zr258   2.428       .  S
O224        C235   1.290       .  A
O225       Zr231   2.436       .  S
O225        C236   1.291       .  A
O226       Zr231   2.437       .  S
O226        C237   1.291       .  A
O227       Zr261   2.428       .  S
O227        C237   1.290       .  A
O228       Zr260   2.434       .  S
O228        C236   1.292       .  A
O229       Zr231   2.435       .  S
O229        C235   1.292       .  A
O230       Zr231   2.424       .  S
O230        C234   1.289       .  A
Zr231       O232   2.333       .  S
Zr231       O233   2.340       .  S
Zr231       O241   2.341       .  S
Zr231       O239   2.335       .  S
O232       Zr258   2.334       .  S
O232       Zr261   2.334       .  S
O233       Zr259   2.338       .  S
O233       Zr260   2.335       .  S
C234       C3358   1.468       .  S
C235       C3070   1.471       .  S
C236       C1781   1.474       .  S
C237       C3125   1.480       .  S
H238        O239   0.966       .  S
O239       Zr258   2.343       .  S
O239       Zr260   2.344       .  S
H240        O241   0.966       .  S
O241       Zr259   2.341       .  S
O241       Zr261   2.340       .  S
O242       Zr258   2.436       .  S
O242        C265   1.291       .  A
O243       Zr259   2.441       .  S
O243        C266   1.293       .  A
O244       Zr260   2.434       .  S
O244        C267   1.292       .  A
O245       Zr261   2.433       .  S
O245        C268   1.292       .  A
O246       Zr261   2.432       .  S
O246        C269   1.290       .  A
O247       Zr260   2.438       .  S
O247        C270   1.291       .  A
O248       Zr262   2.438       .  S
O248        C271   1.292       .  A
O249       Zr262   2.443       .  S
O249        C272   1.292       .  A
O250       Zr260   2.442       .  S
O250        C271   1.292       .  A
O251       Zr261   2.426       .  S
O251        C272   1.289       .  A
O252       Zr258   2.429       .  S
O252        C267   1.290       .  A
O253       Zr259   2.442       .  S
O253        C270   1.294       .  A
O254       Zr259   2.438       .  S
O254        C269   1.293       .  A
O255       Zr258   2.441       .  S
O255        C268   1.292       .  A
O256       Zr262   2.422       .  S
O256        C265   1.289       .  A
O257       Zr262   2.419       .  S
O257        C266   1.288       .  A
Zr258       O264   2.337       .  S
Zr258       O276   2.335       .  S
Zr259       O263   2.339       .  S
Zr259       O274   2.337       .  S
Zr260       O264   2.338       .  S
Zr260       O274   2.338       .  S
Zr261       O263   2.335       .  S
Zr261       O276   2.343       .  S
Zr262       O263   2.336       .  S
Zr262       O264   2.334       .  S
Zr262       O276   2.339       .  S
Zr262       O274   2.338       .  S
C265       C1822   1.481       .  S
C266       C1886   1.479       .  S
C267       C1749   1.467       .  S
C268       C1845   1.486       .  S
C269       C2718   1.488       .  S
C270       C3294   1.488       .  S
C271       C1950   1.478       .  S
C272       C2654   1.466       .  S
H273        O274   0.966       .  S
H275        O276   0.966       .  S
C277        N278   1.355       .  A
C277        N282   1.360       .  A
C277       C2078   1.482       .  S
N278        C279   1.356       .  A
C279        N280   1.357       .  A
C279       C1717   1.470       .  S
N280        C281   1.359       .  A
C281        N282   1.360       .  A
C281        C435   1.470       .  S
C283        N284   1.355       .  A
C283        N288   1.359       .  A
C283       C1694   1.490       .  S
N284        C285   1.354       .  A
C285        N286   1.358       .  A
C285       C2110   1.482       .  S
N286        C287   1.361       .  A
C287        N288   1.362       .  A
C289        N290   1.357       .  A
C289        N294   1.357       .  A
C289       C1813   1.473       .  S
N290        C291   1.359       .  A
C291        N292   1.357       .  A
N292        C293   1.356       .  A
C293        N294   1.357       .  A
C293       C1662   1.485       .  S
C295        N296   1.356       .  A
C295        N300   1.354       .  A
C295       C1854   1.476       .  S
N296        C297   1.359       .  A
C297        N298   1.361       .  A
C297        C465   1.472       .  S
N298        C299   1.362       .  A
C299        N300   1.360       .  A
C299       C1621   1.496       .  S
O301       Zr337   2.421       .  S
O301        C312   1.288       .  A
O302       Zr336   2.432       .  S
O302        C313   1.291       .  A
O303       Zr309   2.428       .  S
O303        C314   1.289       .  A
O304       Zr309   2.426       .  S
O304        C315   1.289       .  A
O305       Zr339   2.445       .  S
O305        C315   1.293       .  A
O306       Zr338   2.453       .  S
O306        C314   1.294       .  A
O307       Zr309   2.432       .  S
O307        C313   1.291       .  A
O308       Zr309   2.447       .  S
O308        C312   1.294       .  A
Zr309       O310   2.337       .  S
Zr309       O311   2.335       .  S
Zr309       O319   2.340       .  S
Zr309       O317   2.343       .  S
O310       Zr336   2.340       .  S
O310       Zr339   2.333       .  S
O311       Zr337   2.341       .  S
O311       Zr338   2.335       .  S
C312       C3765   1.485       .  S
C313       C2526   1.469       .  S
C314       C2581   1.484       .  S
C315       C1630   1.467       .  S
H316        O317   0.966       .  S
O317       Zr336   2.351       .  S
O317       Zr338   2.340       .  S
H318        O319   0.966       .  S
O319       Zr337   2.334       .  S
O319       Zr339   2.334       .  S
O320       Zr336   2.440       .  S
O320        C343   1.292       .  A
O321       Zr337   2.437       .  S
O321        C344   1.291       .  A
O322       Zr338   2.433       .  S
O322        C345   1.291       .  A
O323       Zr339   2.426       .  S
O323        C346   1.290       .  A
O324       Zr339   2.439       .  S
O324        C347   1.291       .  A
O325       Zr338   2.434       .  S
O325        C348   1.292       .  A
O326       Zr340   2.440       .  S
O326        C349   1.292       .  A
O327       Zr340   2.445       .  S
O327        C350   1.294       .  A
O328       Zr338   2.437       .  S
O328        C349   1.292       .  A
O329       Zr339   2.428       .  S
O329        C350   1.290       .  A
O330       Zr336   2.447       .  S
O330        C345   1.293       .  A
O331       Zr337   2.425       .  S
O331        C348   1.289       .  A
O332       Zr337   2.431       .  S
O332        C347   1.291       .  A
O333       Zr336   2.446       .  S
O333        C346   1.294       .  A
O334       Zr340   2.439       .  S
O334        C343   1.292       .  A
O335       Zr340   2.435       .  S
O335        C344   1.291       .  A
Zr336       O342   2.337       .  S
Zr336       O354   2.345       .  S
Zr337       O341   2.330       .  S
Zr337       O352   2.330       .  S
Zr338       O342   2.345       .  S
Zr338       O352   2.340       .  S
Zr339       O341   2.336       .  S
Zr339       O354   2.351       .  S
Zr340       O341   2.337       .  S
Zr340       O342   2.341       .  S
Zr340       O354   2.345       .  S
Zr340       O352   2.336       .  S
C343       C1726   1.485       .  S
C344       C1589   1.470       .  S
C345       C1685   1.471       .  S
C346       C1653   1.478       .  S
C347       C3710   1.478       .  S
C348       C3390   1.475       .  S
C349       C3326   1.473       .  S
C350       C1557   1.480       .  S
H351        O352   0.970       .  S
H353        O354   0.966       .  S
C355        N356   1.356       .  A
C355        N360   1.357       .  A
C355       C1502   1.491       .  S
N356        C357   1.353       .  A
C357        N358   1.358       .  A
C357       C1525   1.475       .  S
N358        C359   1.361       .  A
C359        N360   1.359       .  A
C359        C459   1.467       .  S
C361        N362   1.360       .  A
C361        N366   1.354       .  A
C361       C1438   1.486       .  S
N362        C363   1.363       .  A
C363        N364   1.363       .  A
N364        C365   1.359       .  A
C365        N366   1.356       .  A
C365       C1461   1.489       .  S
C367        N368   1.357       .  A
C367        N372   1.357       .  A
C367       C1397   1.484       .  S
N368        C369   1.360       .  A
C369        N370   1.362       .  A
C369        C525   1.472       .  S
N370        C371   1.361       .  A
C371        N372   1.358       .  A
C371       C2014   1.499       .  S
C373        N374   1.358       .  A
C373        N378   1.359       .  A
C373       C1374   1.484       .  S
N374        C375   1.357       .  A
C375        N376   1.357       .  A
C375       C2037   1.481       .  S
N376        C377   1.359       .  A
C377        N378   1.359       .  A
C377        C453   1.467   1_554  S
O379       Zr415   2.420       .  S
O379        C390   1.289       .  A
O380       Zr414   2.456       .  S
O380        C391   1.295       .  A
O381       Zr387   2.426       .  S
O381        C392   1.290       .  A
O382       Zr387   2.434       .  S
O382        C393   1.291       .  A
O383       Zr417   2.435       .  S
O383        C393   1.292       .  A
O384       Zr416   2.436       .  S
O384        C392   1.292       .  A
O385       Zr387   2.419       .  S
O385        C391   1.288       .  A
O386       Zr387   2.441       .  S
O386        C390   1.292       .  A
Zr387       O388   2.334       .  S
Zr387       O389   2.330       .  S
Zr387       O397   2.336       .  S
Zr387       O395   2.347       .  S
O388       Zr414   2.337       .  S
O388       Zr417   2.331       .  S
O389       Zr415   2.333       .  S
O389       Zr416   2.335       .  S
C390       C3509   1.467       .  S
C391       C3166   1.475       .  S
C392       C3221   1.471       .  S
C393       C1365   1.474       .  S
H394        O395   0.966       .  S
O395       Zr414   2.347       .  S
O395       Zr416   2.341       .  S
H396        O397   0.966       .  S
O397       Zr415   2.344       .  S
O397       Zr417   2.341       .  S
O398       Zr414   2.447       .  S
O398        C421   1.294       .  A
O399       Zr415   2.431       .  S
O399        C422   1.291       .  A
O400       Zr416   2.439       .  S
O400        C423   1.292       .  A
O401       Zr417   2.439       .  S
O401        C424   1.292       .  A
O402       Zr417   2.443       .  S
O402        C425   1.293       .  A
O403       Zr416   2.428       .  S
O403        C426   1.290       .  A
O404       Zr418   2.438       .  S
O404        C427   1.292       .  A
O405       Zr418   2.422       .  S
O405        C428   1.288       .  A
O406       Zr416   2.430       .  S
O406        C427   1.291       .  A
O407       Zr417   2.431       .  S
O407        C428   1.291       .  A
O408       Zr414   2.435       .  S
O408        C423   1.292       .  A
O409       Zr415   2.440       .  S
O409        C426   1.292       .  A
O410       Zr415   2.433       .  S
O410        C425   1.292       .  A
O411       Zr414   2.439       .  S
O411        C424   1.292       .  A
O412       Zr418   2.423       .  S
O412        C421   1.289       .  A
O413       Zr418   2.430       .  S
O413        C422   1.290       .  A
Zr414       O420   2.338       .  S
Zr414       O432   2.350       .  S
Zr415       O419   2.329       .  S
Zr415       O430   2.336       .  S
Zr416       O420   2.333       .  S
Zr416       O430   2.344       .  S
Zr417       O419   2.334       .  S
Zr417       O432   2.347       .  S
Zr418       O419   2.328       .  S
Zr418       O420   2.334       .  S
Zr418       O432   2.348       .  S
Zr418       O430   2.338       .  S
C421       C1493   1.471       .  S
C422       C1333   1.470       .  S
C423       C1429   1.480       .  S
C424       C1406   1.479       .  S
C425       C3454   1.475       .  S
C426       C2453   1.470       .  S
C427       C2398   1.473       .  S
C428       C1301   1.472       .  S
H429        O430   0.965       .  S
H431        O432   0.966       .  S
C433        N434   1.362       .  A
C433        N438   1.356       .  A
C433       C1269   1.493       .  S
N434        C435   1.361       .  A
C435        N436   1.358       .  A
N436        C437   1.356       .  A
C437        N438   1.356       .  A
C437       C1310   1.471       .  S
C439        N440   1.356       .  A
C439        N444   1.352       .  A
C439       C1237   1.470       .  S
N440        C441   1.359       .  A
C441        N442   1.361       .  A
C441        C609   1.463   1_565  S
N442        C443   1.358       .  A
C443        N444   1.352       .  A
C443       C1342   1.475       .  S
C445        N446   1.355       .  A
C445        N450   1.357       .  A
C445       C1205   1.478       .  S
N446        C447   1.354       .  A
C447        N448   1.360       .  A
C447       C1566   1.487       .  S
N448        C449   1.363       .  A
C449        N450   1.359       .  A
C449        C593   1.469       .  S
C451        N452   1.357       .  A
C451        N456   1.358       .  A
C451       C1598   1.488       .  S
N452        C453   1.358       .  A
C453        N454   1.360       .  A
N454        C455   1.359       .  A
C455        N456   1.358       .  A
C455       C1173   1.481       .  S
C457        N458   1.356       .  A
C457        N462   1.354       .  A
C457       C1109   1.468       .  S
N458        C459   1.358       .  A
C459        N460   1.360       .  A
N460        C461   1.359       .  A
C461        N462   1.355       .  A
C461       C1141   1.483       .  S
C463        N464   1.364       .  A
C463        N468   1.357       .  A
C463       C1077   1.498       .  S
N464        C465   1.363       .  A
C465        N466   1.359       .  A
N466        C467   1.355       .  A
C467        N468   1.355       .  A
C467       C1045   1.481       .  S
O469       Zr505   2.443       .  S
O469        C480   1.294       .  A
O470       Zr504   2.429       .  S
O470        C481   1.290       .  A
O471       Zr477   2.434       .  S
O471        C482   1.291       .  A
O472       Zr477   2.433       .  S
O472        C483   1.292       .  A
O473       Zr507   2.425       .  S
O473        C483   1.289       .  A
O474       Zr506   2.444       .  S
O474        C482   1.293       .  A
O475       Zr477   2.438       .  S
O475        C481   1.293       .  A
O476       Zr477   2.444       .  S
O476        C480   1.292       .  A
Zr477       O478   2.343       .  S
Zr477       O479   2.335       .  S
Zr477       O487   2.338       .  S
Zr477       O485   2.341       .  S
O478       Zr504   2.344       .  S
O478       Zr507   2.338       .  S
O479       Zr505   2.331       .  S
O479       Zr506   2.339       .  S
C480       C3253   1.491       .  S
C481       C2549   1.470       .  S
C482       C1086   1.470       .  S
C483       C2622   1.469       .  S
H484        O485   0.966       .  S
O485       Zr504   2.343       .  S
O485       Zr506   2.332       .  S
H486        O487   0.966       .  S
O487       Zr505   2.340       .  S
O487       Zr507   2.342       .  S
O488       Zr504   2.445       .  S
O488        C511   1.294       .  A
O489       Zr505   2.430       .  S
O489        C512   1.290       .  A
O490       Zr506   2.435       .  S
O490        C513   1.292       .  A
O491       Zr507   2.428       .  S
O491        C514   1.290       .  A
O492       Zr507   2.424       .  S
O492        C515   1.289       .  A
O493       Zr506   2.420       .  S
O493        C516   1.288       .  A
O494       Zr508   2.424       .  S
O494        C517   1.290       .  A
O495       Zr508   2.425       .  S
O495        C518   1.289       .  A
O496       Zr506   2.437       .  S
O496        C517   1.292       .  A
O497       Zr507   2.432       .  S
O497        C518   1.291       .  A
O498       Zr504   2.431       .  S
O498        C513   1.290       .  A
O499       Zr505   2.440       .  S
O499        C516   1.292       .  A
O500       Zr505   2.433       .  S
O500        C515   1.291       .  A
O501       Zr504   2.431       .  S
O501        C514   1.291       .  A
O502       Zr508   2.438       .  S
O502        C511   1.291       .  A
O503       Zr508   2.443       .  S
O503        C512   1.294       .  A
Zr504       O510   2.340       .  S
Zr504       O522   2.333       .  S
Zr505       O509   2.337       .  S
Zr505       O520   2.342       .  S
Zr506       O510   2.340       .  S
Zr506       O520   2.344       .  S
Zr507       O509   2.332       .  S
Zr507       O522   2.330       .  S
Zr508       O509   2.331       .  S
Zr508       O510   2.346       .  S
Zr508       O522   2.333       .  S
Zr508       O520   2.335       .  S
C511       C1278   1.479       .  S
C512       C1182   1.481       .  S
C513       C1150   1.472       .  S
C514       C1246   1.469       .  S
C515       C3006   1.473       .  S
C516       C3198   1.465       .  S
C517       C1214   1.469       .  S
C518       C2942   1.473       .  S
H519        O520   0.966       .  S
H521        O522   0.965       .  S
C523        N524   1.360       .  A
C523        N528   1.357       .  A
C523        C981   1.479       .  S
N524        C525   1.361       .  A
C525        N526   1.361       .  A
N526        C527   1.358       .  A
C527        N528   1.355       .  A
C527       C1013   1.477       .  S
C529        N530   1.356       .  A
C529        N534   1.356       .  A
C529        C958   1.470       .  S
N530        C531   1.356       .  A
C531        N532   1.358       .  A
C531        C917   1.473       .  S
N532        C533   1.360       .  A
C533        N534   1.355       .  A
C533        C597   1.464   1_554  S
O535       Zr571   2.421       .  S
O535        C546   1.289       .  A
O536       Zr570   2.443       .  S
O536        C547   1.292       .  A
O537       Zr543   2.437       .  S
O537        C548   1.292       .  A
O538       Zr543   2.433       .  S
O538        C549   1.291       .  A
O539       Zr573   2.435       .  S
O539        C549   1.291       .  A
O540       Zr572   2.447       .  S
O540        C548   1.294       .  A
O541       Zr543   2.437       .  S
O541        C547   1.292       .  A
O542       Zr543   2.434       .  S
O542        C546   1.291       .  A
Zr543       O544   2.336       .  S
Zr543       O545   2.338       .  S
Zr543       O553   2.345       .  S
Zr543       O551   2.334       .  S
O544       Zr570   2.334       .  S
O544       Zr573   2.338       .  S
O545       Zr571   2.339       .  S
O545       Zr572   2.338       .  S
C546       C3614   1.469       .  S
C547       C2302   1.479       .  S
C548       C1470   1.478       .  S
C549       C2366   1.471       .  S
H550        O551   0.966       .  S
O551       Zr570   2.334       .  S
O551       Zr572   2.342       .  S
H552        O553   0.966       .  S
O553       Zr571   2.338       .  S
O553       Zr573   2.340       .  S
O554       Zr570   2.426       .  S
O554        C577   1.289       .  A
O555       Zr571   2.433       .  S
O555        C578   1.291       .  A
O556       Zr572   2.432       .  S
O556        C579   1.292       .  A
O557       Zr573   2.426       .  S
O557        C580   1.290       .  A
O558       Zr573   2.432       .  S
O558        C581   1.291       .  A
O559       Zr572   2.432       .  S
O559        C582   1.291       .  A
O560       Zr574   2.436       .  S
O560        C583   1.292       .  A
O561       Zr574   2.438       .  S
O561        C584   1.292       .  A
O562       Zr572   2.446       .  S
O562        C583   1.293       .  A
O563       Zr573   2.437       .  S
O563        C584   1.291       .  A
O564       Zr570   2.433       .  S
O564        C579   1.291       .  A
O565       Zr571   2.430       .  S
O565        C582   1.291       .  A
O566       Zr571   2.436       .  S
O566        C581   1.291       .  A
O567       Zr570   2.433       .  S
O567        C580   1.292       .  A
O568       Zr574   2.449       .  S
O568        C577   1.294       .  A
O569       Zr574   2.428       .  S
O569        C578   1.290       .  A
Zr570       O576   2.344       .  S
Zr570       O588   2.340       .  S
Zr571       O575   2.331       .  S
Zr571       O586   2.335       .  S
Zr572       O576   2.342       .  S
Zr572       O586   2.342       .  S
Zr573       O575   2.330       .  S
Zr573       O588   2.344       .  S
Zr574       O575   2.337       .  S
Zr574       O576   2.340       .  S
Zr574       O588   2.338       .  S
Zr574       O586   2.342       .  S
C577        C853   1.480       .  S
C578        C949   1.469       .  S
C579       C1534   1.475       .  S
C580        C885   1.469       .  S
C581       C3477   1.474       .  S
C582       C3550   1.476       .  S
C583       C1022   1.481       .  S
C584       C3422   1.480       .  S
H585        O586   0.966       .  S
H587        O588   0.966       .  S
C589        N590   1.356       .  A
C589        N594   1.355       .  A
C589       C1758   1.480       .  S
N590        C591   1.358       .  A
C591        N592   1.361       .  A
C591        C821   1.501       .  S
N592        C593   1.362       .  A
C593        N594   1.356       .  A
C595        N596   1.355       .  A
C595        N600   1.359       .  A
C595       C1790   1.483       .  S
N596        C597   1.354       .  A
C597        N598   1.358       .  A
N598        C599   1.358       .  A
C599        N600   1.359       .  A
C599        C789   1.484       .  S
C601        N602   1.358       .  A
C601        N606   1.360       .  A
C601        C757   1.487       .  S
N602        C603   1.359       .  A
C603        N604   1.359       .  A
C603        C862   1.493       .  S
N604        C605   1.360       .  A
C605        N606   1.362       .  A
C607        N608   1.355       .  A
C607        N612   1.357       .  A
C607        C894   1.481       .  S
N608        C609   1.356       .  A
C609        N610   1.359       .  A
N610        C611   1.359       .  A
C611        N612   1.355       .  A
C611        C734   1.485       .  S
O613       Zr649   2.434       .  S
O613        C624   1.291       .  A
O614       Zr648   2.435       .  S
O614        C625   1.291       .  A
O615       Zr621   2.430       .  S
O615        C626   1.290       .  A
O616       Zr621   2.438       .  S
O616        C627   1.291       .  A
O617       Zr651   2.440       .  S
O617        C627   1.293       .  A
O618       Zr650   2.428       .  S
O618        C626   1.290       .  A
O619       Zr621   2.433       .  S
O619        C625   1.291       .  A
O620       Zr621   2.439       .  S
O620        C624   1.292       .  A
Zr621       O622   2.338       .  S
Zr621       O623   2.339       .  S
Zr621       O631   2.337       .  S
Zr621       O629   2.345       .  S
O622       Zr648   2.341       .  S
O622       Zr651   2.335       .  S
O623       Zr649   2.338       .  S
O623       Zr650   2.341       .  S
C624       C3646   1.470       .  S
C625       C2686   1.469       .  S
C626       C2741   1.462       .  S
C627       C1054   1.480       .  S
H628        O629   0.966       .  S
O629       Zr648   2.346       .  S
O629       Zr650   2.346       .  S
H630        O631   0.965       .  S
O631       Zr649   2.334       .  S
O631       Zr651   2.330       .  S
O632       Zr648   2.440       .  S
O632        C655   1.292       .  A
O633       Zr649   2.428       .  S
O633        C656   1.290       .  A
O634       Zr650   2.433       .  S
O634        C657   1.291       .  A
O635       Zr651   2.421       .  S
O635        C658   1.288       .  A
O636       Zr651   2.422       .  S
O636        C659   1.289       .  A
O637       Zr650   2.436       .  S
O637        C660   1.292       .  A
O638       Zr652   2.428       .  S
O638        C661   1.289       .  A
O639       Zr652   2.429       .  S
O639        C662   1.290       .  A
O640       Zr650   2.440       .  S
O640        C661   1.293       .  A
O641       Zr651   2.432       .  S
O641        C662   1.290       .  A
O642       Zr648   2.439       .  S
O642        C657   1.293       .  A
O643       Zr649   2.430       .  S
O643        C660   1.290       .  A
O644       Zr649   2.446       .  S
O644        C659   1.294       .  A
O645       Zr648   2.438       .  S
O645        C658   1.293       .  A
O646       Zr652   2.444       .  S
O646        C655   1.293       .  A
O647       Zr652   2.438       .  S
O647        C656   1.293       .  A
Zr648       O654   2.333       .  S
Zr648       O666   2.342       .  S
Zr649       O653   2.337       .  S
Zr649       O664   2.346       .  S
Zr650       O654   2.332       .  S
Zr650       O664   2.334       .  S
Zr651       O653   2.338       .  S
Zr651       O666   2.339       .  S
Zr652       O653   2.337       .  S
Zr652       O654   2.332       .  S
Zr652       O666   2.337       .  S
Zr652       O664   2.340       .  S
C655        C766   1.480       .  S
C656        C798   1.475       .  S
C657        C725   1.475       .  S
C658       C1118   1.477       .  S
C659       C3573   1.475       .  S
C660       C2974   1.470       .  S
C661       C2910   1.481       .  S
C662        C830   1.461       .  S
H663        O664   0.966       .  S
H665        O666   0.966       .  S
O667       Zr703   2.434       .  S
O667        C678   1.291       .  A
O668       Zr702   2.450       .  S
O668        C679   1.294       .  A
O669       Zr675   2.424       .  S
O669        C680   1.291       .  A
O670       Zr675   2.439       .  S
O670        C681   1.291       .  A
O671       Zr705   2.435       .  S
O671        C681   1.292       .  A
O672       Zr704   2.442       .  S
O672        C680   1.292       .  A
O673       Zr675   2.422       .  S
O673        C679   1.288       .  A
O674       Zr675   2.426       .  S
O674        C678   1.290       .  A
Zr675       O676   2.329       .  S
Zr675       O677   2.341       .  S
Zr675       O685   2.329       .  S
Zr675       O683   2.340       .  S
O676       Zr702   2.338       .  S
O676       Zr705   2.339       .  S
O677       Zr703   2.340       .  S
O677       Zr704   2.340       .  S
C678       C3093   1.465       .  S
C679       C2261   1.485       .  S
C680       C2325   1.483       .  S
C681       C2174   1.483       .  S
H682        O683   0.966       .  S
O683       Zr702   2.341       .  S
O683       Zr704   2.342       .  S
H684        O685   0.965       .  S
O685       Zr703   2.336       .  S
O685       Zr705   2.330       .  S
O686       Zr702   2.445       .  S
O686        C709   1.294       .  A
O687       Zr703   2.438       .  S
O687        C710   1.292       .  A
O688       Zr704   2.440       .  S
O688        C711   1.292       .  A
O689       Zr705   2.428       .  S
O689        C712   1.291       .  A
O690       Zr705   2.445       .  S
O690        C713   1.294       .  A
O691       Zr704   2.441       .  S
O691        C714   1.292       .  A
O692       Zr706   2.436       .  S
O692        C715   1.292       .  A
O693       Zr706   2.436       .  S
O693        C716   1.291       .  A
O694       Zr704   2.434       .  S
O694        C715   1.291       .  A
O695       Zr705   2.440       .  S
O695        C716   1.292       .  A
O696       Zr702   2.445       .  S
O696        C711   1.294       .  A
O697       Zr703   2.434       .  S
O697        C714   1.292       .  A
O698       Zr703   2.431       .  S
O698        C713   1.290       .  A
O699       Zr702   2.431       .  S
O699        C712   1.292       .  A
O700       Zr706   2.438       .  S
O700        C709   1.292       .  A
O701       Zr706   2.435       .  S
O701        C710   1.291       .  A
Zr702       O708   2.337       .  S
Zr702       O720   2.351       .  S
Zr703       O707   2.339       .  S
Zr703       O718   2.340       .  S
Zr704       O708   2.340       .  S
Zr704       O718   2.343       .  S
Zr705       O707   2.334       .  S
Zr705       O720   2.346       .  S
Zr706       O707   2.338       .  S
Zr706       O708   2.338       .  S
Zr706       O720   2.341       .  S
Zr706       O718   2.342       .  S
C709       C1982   1.479       .  S
C710        C926   1.480       .  S
C711       C1918   1.489       .  S
C712       C2238   1.473       .  S
C713       C3038   1.487       .  S
C714       C2846   1.482       .  S
C715       C2782   1.472       .  S
C716        C990   1.477       .  S
H717        O718   0.966       .  S
H719        O720   0.966       .  S
C721        C722   1.401       .  A
C721        C726   1.404       .  A
C721        H731   1.084       .  S
C722        C727   1.478       .  S
C722        C723   1.411       .  A
C723        C724   1.401       .  A
C723        C728   1.507       .  S
C724        C725   1.402       .  A
C724        H729   1.084       .  S
C725        C726   1.417       .  A
C726        C730   1.509       .  S
C727        C732   1.408       .  A
C727        C736   1.398       .  A
C728        H744   1.110       .  S
C728        H745   1.110       .  S
C728        H746   1.111       .  S
C730        H741   1.109       .  S
C730        H742   1.111       .  S
C730        H743   1.111       .  S
C732        C733   1.403       .  A
C732        C737   1.506       .  S
C733        C734   1.407       .  A
C733        H738   1.084       .  S
C734        C735   1.421       .  A
C735        C736   1.402       .  A
C735        C739   1.509       .  S
C736        H740   1.084       .  S
C737        H747   1.111       .  S
C737        H748   1.110       .  S
C737        H749   1.110       .  S
C739        H750   1.110       .  S
C739        H751   1.109       .  S
C739        H752   1.111       .  S
C753        C754   1.400       .  A
C753        C758   1.404       .  A
C753        H763   1.084       .  S
C754        C759   1.485       .  S
C754        C755   1.412       .  A
C755        C756   1.408       .  A
C755        C760   1.506       .  S
C756        C757   1.407       .  A
C756        H761   1.084       .  S
C757        C758   1.418       .  A
C758        C762   1.508       .  S
C759        C764   1.413       .  A
C759        C768   1.403       .  A
C760        H776   1.110       .  S
C760        H777   1.109       .  S
C760        H778   1.111       .  S
C762        H773   1.109       .  S
C762        H774   1.111       .  S
C762        H775   1.111       .  S
C764        C765   1.404       .  A
C764        C769   1.507       .  S
C765        C766   1.404       .  A
C765        H770   1.085       .  S
C766        C767   1.415       .  A
C767        C768   1.407       .  A
C767        C771   1.508       .  S
C768        H772   1.084       .  S
C769        H779   1.111       .  S
C769        H780   1.110       .  S
C769        H781   1.109       .  S
C771        H782   1.111       .  S
C771        H783   1.111       .  S
C771        H784   1.109       .  S
C785        C786   1.398       .  A
C785        C790   1.403       .  A
C785        H795   1.084       .  S
C786        C791   1.476       .  S
C786        C787   1.409       .  A
C787        C788   1.402       .  A
C787        C792   1.507       .  S
C788        C789   1.407       .  A
C788        H793   1.084       .  S
C789        C790   1.419       .  A
C790        C794   1.507       .  S
C791        C796   1.410       .  A
C791        C800   1.401       .  A
C792        H808   1.110       .  S
C792        H809   1.110       .  S
C792        H810   1.111       .  S
C794        H805   1.111       .  S
C794        H806   1.110       .  S
C794        H807   1.110       .  S
C796        C797   1.398       .  A
C796        C801   1.507       .  S
C797        C798   1.402       .  A
C797        H802   1.084       .  S
C798        C799   1.418       .  A
C799        C800   1.406       .  A
C799        C803   1.509       .  S
C800        H804   1.084       .  S
C801        H811   1.111       .  S
C801        H812   1.110       .  S
C801        H813   1.109       .  S
C803        H814   1.110       .  S
C803        H815   1.110       .  S
C803        H816   1.111       .  S
C817        C818   1.397       .  A
C817        C822   1.406       .  A
C817        H827   1.084       .  S
C818        C823   1.475       .  S
C818        C819   1.405       .  A
C819        C820   1.400       .  A
C819        C824   1.508       .  S
C820        C821   1.413       .  A
C820        H825   1.083       .  S
C821        C822   1.425       .  A
C822        C826   1.504       .  S
C823        C828   1.410       .  A
C823        C832   1.401       .  A
C824        H840   1.110       .  S
C824        H841   1.110       .  S
C824        H842   1.111       .  S
C826        H837   1.110       .  S
C826        H838   1.111       .  S
C826        H839   1.110       .  S
C828        C829   1.400       .  A
C828        C833   1.506       .  S
C829        C830   1.400       .  A
C829        H834   1.083       .  S
C830        C831   1.412       .  A
C831        C832   1.401       .  A
C831        C835   1.508       .  S
C832        H836   1.084       .  S
C833        H843   1.111       .  S
C833        H844   1.110       .  S
C833        H845   1.110       .  S
C835        H846   1.110       .  S
C835        H847   1.109       .  S
C835        H848   1.110       .  S
C849        C850   1.401       .  A
C849        C854   1.402       .  A
C849        H859   1.084       .  S
C850        C855   1.486       .  S
C850        C851   1.412       .  A
C851        C852   1.406       .  A
C851        C856   1.505       .  S
C852        C853   1.405       .  A
C852        H857   1.084       .  S
C853        C854   1.417       .  A
C854        C858   1.510       .  S
C855        C860   1.411       .  A
C855        C864   1.401       .  A
C856        H872   1.110       .  S
C856        H873   1.110       .  S
C856        H874   1.111       .  S
C858        H869   1.109       .  S
C858        H870   1.111       .  S
C858        H871   1.111       .  S
C860        C861   1.403       .  A
C860        C865   1.508       .  S
C861        C862   1.408       .  A
C861        H866   1.084       .  S
C862        C863   1.422       .  A
C863        C864   1.408       .  A
C863        C867   1.508       .  S
C864        H868   1.084       .  S
C865        H875   1.111       .  S
C865        H876   1.109       .  S
C865        H877   1.110       .  S
C867        H878   1.111       .  S
C867        H879   1.110       .  S
C867        H880   1.110       .  S
C881        C882   1.399       .  A
C881        C886   1.398       .  A
C881        H891   1.085       .  S
C882        C887   1.473       .  S
C882        C883   1.408       .  A
C883        C884   1.402       .  A
C883        C888   1.506       .  S
C884        C885   1.405       .  A
C884        H889   1.084       .  S
C885        C886   1.416       .  A
C886        C890   1.510       .  S
C887        C892   1.408       .  A
C887        C896   1.400       .  A
C888        H904   1.110       .  S
C888        H905   1.110       .  S
C888        H906   1.111       .  S
C890        H901   1.111       .  S
C890        H902   1.106       .  S
C890        H903   1.110       .  S
C892        C893   1.397       .  A
C892        C897   1.508       .  S
C893        C894   1.405       .  A
C893        H898   1.084       .  S
C894        C895   1.420       .  A
C895        C896   1.405       .  A
C895        C899   1.508       .  S
C896        H900   1.084       .  S
C897        H907   1.111       .  S
C897        H908   1.110       .  S
C897        H909   1.111       .  S
C899        H910   1.110       .  S
C899        H911   1.110       .  S
C899        H912   1.111       .  S
C913        C914   1.400       .  A
C913        C918   1.401       .  A
C913        H923   1.085       .  S
C914        C919   1.478       .  S
C914        C915   1.410       .  A
C915        C916   1.404       .  A
C915        C920   1.505       .  S
C916        C917   1.403       .  A
C916        H921   1.084       .  S
C917        C918   1.417       .  A
C918        C922   1.509       .  S
C919        C924   1.410       .  A
C919        C928   1.399       .  A
C920        H936   1.110       .  S
C920        H937   1.110       .  S
C920        H938   1.111       .  S
C922        H933   1.111       .  S
C922        H934   1.110       .  S
C922        H935   1.107       .  S
C924        C925   1.405       .  A
C924        C929   1.506       .  S
C925        C926   1.406       .  A
C925        H930   1.084       .  S
C926        C927   1.418       .  A
C927        C928   1.402       .  A
C927        C931   1.510       .  S
C928        H932   1.084       .  S
C929        H939   1.111       .  S
C929        H940   1.110       .  S
C929        H941   1.110       .  S
C931        H942   1.109       .  S
C931        H943   1.110       .  S
C931        H944   1.111       .  S
C945        C946   1.400       .  A
C945        C950   1.397       .  A
C945        H955   1.085       .  S
C946        C951   1.474       .  S
C946        C947   1.409       .  A
C947        C948   1.402       .  A
C947        C952   1.506       .  S
C948        C949   1.404       .  A
C948        H953   1.084       .  S
C949        C950   1.415       .  A
C950        C954   1.509       .  S
C951        C956   1.409       .  A
C951        C960   1.402       .  A
C952        H968   1.110       .  S
C952        H969   1.110       .  S
C952        H970   1.111       .  S
C954        H965   1.111       .  S
C954        H966   1.110       .  S
C954        H967   1.107       .  S
C956        C957   1.399       .  A
C956        C961   1.507       .  S
C957        C958   1.402       .  A
C957        H962   1.084       .  S
C958        C959   1.414       .  A
C959        C960   1.402       .  A
C959        C963   1.508       .  S
C960        H964   1.084       .  S
C961        H971   1.111       .  S
C961        H972   1.110       .  S
C961        H973   1.110       .  S
C963        H974   1.109       .  S
C963        H975   1.111       .  S
C963        H976   1.111       .  S
C977        C978   1.401       .  A
C977        C982   1.403       .  A
C977        H987   1.084       .  S
C978        C983   1.483       .  S
C978        C979   1.412       .  A
C979        C980   1.405       .  A
C979        C984   1.506       .  S
C980        C981   1.404       .  A
C980        H985   1.084       .  S
C981        C982   1.416       .  A
C982        C986   1.508       .  S
C983        C988   1.411       .  A
C983        C992   1.403       .  A
C984       H1000   1.109       .  S
C984       H1001   1.110       .  S
C984       H1002   1.111       .  S
C986        H997   1.111       .  S
C986        H998   1.109       .  S
C986        H999   1.111       .  S
C988        C989   1.404       .  A
C988        C993   1.506       .  S
C989        C990   1.405       .  A
C989        H994   1.084       .  S
C990        C991   1.414       .  A
C991        C992   1.403       .  A
C991        C995   1.508       .  S
C992        H996   1.084       .  S
C993       H1003   1.111       .  S
C993       H1004   1.110       .  S
C993       H1005   1.110       .  S
C995       H1006   1.109       .  S
C995       H1007   1.111       .  S
C995       H1008   1.111       .  S
C1009      C1010   1.402       .  A
C1009      C1014   1.406       .  A
C1009      H1019   1.084       .  S
C1010      C1015   1.482       .  S
C1010      C1011   1.411       .  A
C1011      C1012   1.402       .  A
C1011      C1016   1.507       .  S
C1012      C1013   1.404       .  A
C1012      H1017   1.084       .  S
C1013      C1014   1.417       .  A
C1014      C1018   1.508       .  S
C1015      C1020   1.410       .  A
C1015      C1024   1.402       .  A
C1016      H1032   1.110       .  S
C1016      H1033   1.110       .  S
C1016      H1034   1.111       .  S
C1018      H1029   1.111       .  S
C1018      H1030   1.110       .  S
C1018      H1031   1.107       .  S
C1020      C1021   1.403       .  A
C1020      C1025   1.507       .  S
C1021      C1022   1.406       .  A
C1021      H1026   1.085       .  S
C1022      C1023   1.415       .  A
C1023      C1024   1.405       .  A
C1023      C1027   1.507       .  S
C1024      H1028   1.084       .  S
C1025      H1035   1.111       .  S
C1025      H1036   1.110       .  S
C1025      H1037   1.110       .  S
C1027      H1038   1.111       .  S
C1027      H1039   1.109       .  S
C1027      H1040   1.111       .  S
C1041      C1042   1.399       .  A
C1041      C1046   1.401       .  A
C1041      H1051   1.085       .  S
C1042      C1047   1.480       .  S
C1042      C1043   1.410       .  A
C1043      C1044   1.406   1_655  A
C1043      C1048   1.506   1_655  S
C1044      C1045   1.407       .  A
C1044      H1049   1.084       .  S
C1045      C1046   1.419   1_455  A
C1046      C1050   1.509       .  S
C1047      C1052   1.410       .  A
C1047      C1056   1.402       .  A
C1048      H1064   1.110       .  S
C1048      H1065   1.110   1_455  S
C1048      H1066   1.111       .  S
C1050      H1061   1.110       .  S
C1050      H1062   1.111       .  S
C1050      H1063   1.106       .  S
C1052      C1053   1.401       .  A
C1052      C1057   1.507       .  S
C1053      C1054   1.405       .  A
C1053      H1058   1.084       .  S
C1054      C1055   1.417       .  A
C1055      C1056   1.407       .  A
C1055      C1059   1.508       .  S
C1056      H1060   1.084       .  S
C1057      H1067   1.111       .  S
C1057      H1068   1.110       .  S
C1057      H1069   1.110       .  S
C1059      H1070   1.111       .  S
C1059      H1071   1.111       .  S
C1059      H1072   1.109       .  S
C1073      C1074   1.397       .  A
C1073      C1078   1.404       .  A
C1073      H1083   1.085       .  S
C1074      C1079   1.483       .  S
C1074      C1075   1.409   1_655  A
C1075      C1076   1.407       .  A
C1075      C1080   1.506       .  S
C1076      C1077   1.411       .  A
C1076      H1081   1.083       .  S
C1077      C1078   1.426   1_455  A
C1078      C1082   1.510       .  S
C1079      C1084   1.413       .  A
C1079      C1088   1.402       .  A
C1080      H1096   1.110       .  S
C1080      H1097   1.109       .  S
C1080      H1098   1.111       .  S
C1082      H1093   1.108       .  S
C1082      H1094   1.111       .  S
C1082      H1095   1.110       .  S
C1084      C1085   1.404       .  A
C1084      C1089   1.507       .  S
C1085      C1086   1.400       .  A
C1085      H1090   1.084       .  S
C1086      C1087   1.416       .  A
C1087      C1088   1.405       .  A
C1087      C1091   1.510       .  S
C1088      H1092   1.084       .  S
C1089      H1099   1.111       .  S
C1089      H1100   1.110       .  S
C1089      H1101   1.109       .  S
C1091      H1102   1.111       .  S
C1091      H1103   1.108       .  S
C1091      H1104   1.110       .  S
C1105      C1106   1.399       .  A
C1105      C1110   1.398       .  A
C1105      H1115   1.085       .  S
C1106      C1111   1.472       .  S
C1106      C1107   1.409       .  A
C1107      C1108   1.402       .  A
C1107      C1112   1.506       .  S
C1108      C1109   1.403       .  A
C1108      H1113   1.084       .  S
C1109      C1110   1.415       .  A
C1110      C1114   1.507       .  S
C1111      C1116   1.409       .  A
C1111      C1120   1.397       .  A
C1112      H1128   1.110       .  S
C1112      H1129   1.110       .  S
C1112      H1130   1.111       .  S
C1114      H1125   1.111       .  S
C1114      H1126   1.110       .  S
C1114      H1127   1.107       .  S
C1116      C1117   1.401       .  A
C1116      C1121   1.506       .  S
C1117      C1118   1.405       .  A
C1117      H1122   1.084       .  S
C1118      C1119   1.420       .  A
C1119      C1120   1.400       .  A
C1119      C1123   1.509       .  S
C1120      H1124   1.084       .  S
C1121      H1131   1.111       .  S
C1121      H1132   1.110       .  S
C1121      H1133   1.110       .  S
C1123      H1134   1.109       .  S
C1123      H1135   1.108       .  S
C1123      H1136   1.111       .  S
C1137      C1138   1.397       .  A
C1137      C1142   1.399       .  A
C1137      H1147   1.085       .  S
C1138      C1143   1.472       .  S
C1138      C1139   1.407       .  A
C1139      C1140   1.403       .  A
C1139      C1144   1.506       .  S
C1140      C1141   1.408       .  A
C1140      H1145   1.084       .  S
C1141      C1142   1.420       .  A
C1142      C1146   1.508       .  S
C1143      C1148   1.408       .  A
C1143      C1152   1.401       .  A
C1144      H1160   1.110       .  S
C1144      H1161   1.110       .  S
C1144      H1162   1.111       .  S
C1146      H1157   1.109       .  S
C1146      H1158   1.111       .  S
C1146      H1159   1.110       .  S
C1148      C1149   1.396       .  A
C1148      C1153   1.508       .  S
C1149      C1150   1.400       .  A
C1149      H1154   1.077       .  S
C1150      C1151   1.418       .  A
C1151      C1152   1.404       .  A
C1151      C1155   1.509       .  S
C1152      H1156   1.084       .  S
C1153      H1163   1.111       .  S
C1153      H1164   1.110       .  S
C1153      H1165   1.110       .  S
C1155      H1166   1.111       .  S
C1155      H1167   1.105       .  S
C1155      H1168   1.110       .  S
C1169      C1170   1.399       .  A
C1169      C1174   1.401       .  A
C1169      H1179   1.085       .  S
C1170      C1175   1.480       .  S
C1170      C1171   1.410       .  A
C1171      C1172   1.405       .  A
C1171      C1176   1.506       .  S
C1172      C1173   1.406       .  A
C1172      H1177   1.084       .  S
C1173      C1174   1.419       .  A
C1174      C1178   1.509       .  S
C1175      C1180   1.410       .  A
C1175      C1184   1.401       .  A
C1176      H1192   1.110       .  S
C1176      H1193   1.110       .  S
C1176      H1194   1.111       .  S
C1178      H1189   1.110       .  S
C1178      H1190   1.111       .  S
C1178      H1191   1.107       .  S
C1180      C1181   1.400       .  A
C1180      C1185   1.507       .  S
C1181      C1182   1.403       .  A
C1181      H1186   1.084       .  S
C1182      C1183   1.419       .  A
C1183      C1184   1.407       .  A
C1183      C1187   1.509       .  S
C1184      H1188   1.084       .  S
C1185      H1195   1.110       .  S
C1185      H1196   1.110       .  S
C1185      H1197   1.110       .  S
C1187      H1198   1.111       .  S
C1187      H1199   1.111       .  S
C1187      H1200   1.109       .  S
C1201      C1202   1.400       .  A
C1201      C1206   1.405       .  A
C1201      H1211   1.084       .  S
C1202      C1207   1.472       .  S
C1202      C1203   1.407       .  A
C1203      C1204   1.397       .  A
C1203      C1208   1.508       .  S
C1204      C1205   1.404       .  A
C1204      H1209   1.083       .  S
C1205      C1206   1.416       .  A
C1206      C1210   1.504       .  S
C1207      C1212   1.409       .  A
C1207      C1216   1.399       .  A
C1208      H1224   1.110       .  S
C1208      H1225   1.110       .  S
C1208      H1226   1.111       .  S
C1210      H1221   1.111       .  S
C1210      H1222   1.106       .  S
C1210      H1223   1.110       .  S
C1212      C1213   1.399       .  A
C1212      C1217   1.506       .  S
C1213      C1214   1.402       .  A
C1213      H1218   1.085       .  S
C1214      C1215   1.415       .  A
C1215      C1216   1.400       .  A
C1215      C1219   1.503       .  S
C1216      H1220   1.085       .  S
C1217      H1227   1.110       .  S
C1217      H1228   1.110       .  S
C1217      H1229   1.110       .  S
C1219      H1230   1.110       .  S
C1219      H1231   1.106       .  S
C1219      H1232   1.111       .  S
C1233      C1234   1.401       .  A
C1233      C1238   1.404       .  A
C1233      H1243   1.084       .  S
C1234      C1239   1.469       .  S
C1234      C1235   1.408       .  A
C1235      C1236   1.395       .  A
C1235      C1240   1.509       .  S
C1236      C1237   1.403       .  A
C1236      H1241   1.084       .  S
C1237      C1238   1.414       .  A
C1238      C1242   1.507       .  S
C1239      C1244   1.409       .  A
C1239      C1248   1.398       .  A
C1240      H1256   1.110       .  S
C1240      H1257   1.109       .  S
C1240      H1258   1.111       .  S
C1242      H1253   1.111       .  S
C1242      H1254   1.111       .  S
C1242      H1255   1.109       .  S
C1244      C1245   1.401       .  A
C1244      C1249   1.507       .  S
C1245      C1246   1.404       .  A
C1245      H1250   1.084       .  S
C1246      C1247   1.417       .  A
C1247      C1248   1.397       .  A
C1247      C1251   1.509       .  S
C1248      H1252   1.085       .  S
C1249      H1259   1.111       .  S
C1249      H1260   1.110       .  S
C1249      H1261   1.110       .  S
C1251      H1262   1.111       .  S
C1251      H1263   1.105       .  S
C1251      H1264   1.110       .  S
C1265      C1266   1.399       .  A
C1265      C1270   1.404       .  A
C1265      H1275   1.084       .  S
C1266      C1271   1.482       .  S
C1266      C1267   1.408       .  A
C1267      C1268   1.404       .  A
C1267      C1272   1.506       .  S
C1268      C1269   1.409       .  A
C1268      H1273   1.083       .  S
C1269      C1270   1.424       .  A
C1270      C1274   1.508       .  S
C1271      C1276   1.411       .  A
C1271      C1280   1.402       .  A
C1272      H1288   1.110       .  S
C1272      H1289   1.110       .  S
C1272      H1290   1.111       .  S
C1274      H1285   1.109       .  S
C1274      H1286   1.111       .  S
C1274      H1287   1.110       .  S
C1276      C1277   1.402       .  A
C1276      C1281   1.507       .  S
C1277      C1278   1.403       .  A
C1277      H1282   1.084       .  S
C1278      C1279   1.418       .  A
C1279      C1280   1.406       .  A
C1279      C1283   1.509       .  S
C1280      H1284   1.084       .  S
C1281      H1291   1.111       .  S
C1281      H1292   1.110       .  S
C1281      H1293   1.110       .  S
C1283      H1294   1.111       .  S
C1283      H1295   1.110       .  S
C1283      H1296   1.110       .  S
C1297      C1298   1.399       .  A
C1297      C1302   1.398       .  A
C1297      H1307   1.084       .  S
C1298      C1303   1.473       .  S
C1298      C1299   1.409       .  A
C1299      C1300   1.401       .  A
C1299      C1304   1.506       .  S
C1300      C1301   1.405       .  A
C1300      H1305   1.085       .  S
C1301      C1302   1.415       .  A
C1302      C1306   1.508       .  S
C1303      C1308   1.410       .  A
C1303      C1312   1.399       .  A
C1304      H1320   1.110       .  S
C1304      H1321   1.110       .  S
C1304      H1322   1.111       .  S
C1306      H1317   1.110       .  S
C1306      H1318   1.111       .  S
C1306      H1319   1.109       .  S
C1308      C1309   1.403       .  A
C1308      C1313   1.507       .  S
C1309      C1310   1.403       .  A
C1309      H1314   1.084       .  S
C1310      C1311   1.415       .  A
C1311      C1312   1.399       .  A
C1311      C1315   1.507       .  S
C1312      H1316   1.085       .  S
C1313      H1323   1.111       .  S
C1313      H1324   1.110       .  S
C1313      H1325   1.110       .  S
C1315      H1326   1.110       .  S
C1315      H1327   1.107       .  S
C1315      H1328   1.110       .  S
C1329      C1330   1.401       .  A
C1329      C1334   1.404       .  A
C1329      H1339   1.084       .  S
C1330      C1335   1.473       .  S
C1330      C1331   1.409       .  A
C1331      C1332   1.399       .  A
C1331      C1336   1.507       .  S
C1332      C1333   1.401       .  A
C1332      H1337   1.084       .  S
C1333      C1334   1.416       .  A
C1334      C1338   1.509       .  S
C1335      C1340   1.409       .  A
C1335      C1344   1.396       .  A
C1336      H1352   1.110       .  S
C1336      H1353   1.110       .  S
C1336      H1354   1.111       .  S
C1338      H1349   1.111       .  S
C1338      H1350   1.109       .  S
C1338      H1351   1.110       .  S
C1340      C1341   1.404       .  A
C1340      C1345   1.505       .  S
C1341      C1342   1.406       .  A
C1341      H1346   1.084       .  S
C1342      C1343   1.419       .  A
C1343      C1344   1.396       .  A
C1343      C1347   1.509       .  S
C1344      H1348   1.085       .  S
C1345      H1355   1.111       .  S
C1345      H1356   1.110       .  S
C1345      H1357   1.110       .  S
C1347      H1358   1.110       .  S
C1347      H1359   1.107       .  S
C1347      H1360   1.111       .  S
C1361      C1362   1.401       .  A
C1361      C1366   1.405       .  A
C1361      H1371   1.084       .  S
C1362      C1367   1.478       .  S
C1362      C1363   1.410       .  A
C1363      C1364   1.399       .  A
C1363      C1368   1.507       .  S
C1364      C1365   1.402       .  A
C1364      H1369   1.085       .  S
C1365      C1366   1.419       .  A
C1366      C1370   1.509       .  S
C1367      C1372   1.409       .  A
C1367      C1376   1.399       .  A
C1368      H1384   1.110       .  S
C1368      H1385   1.110       .  S
C1368      H1386   1.111       .  S
C1370      H1381   1.110       .  S
C1370      H1382   1.111       .  S
C1370      H1383   1.106       .  S
C1372      C1373   1.405       .  A
C1372      C1377   1.506       .  S
C1373      C1374   1.407       .  A
C1373      H1378   1.084       .  S
C1374      C1375   1.419       .  A
C1375      C1376   1.402       .  A
C1375      C1379   1.508       .  S
C1376      H1380   1.084       .  S
C1377      H1387   1.111       .  S
C1377      H1388   1.111       .  S
C1377      H1389   1.110       .  S
C1379      H1390   1.111       .  S
C1379      H1391   1.111       .  S
C1379      H1392   1.108       .  S
C1393      C1394   1.402       .  A
C1393      C1398   1.408       .  A
C1393      H1403   1.084       .  S
C1394      C1399   1.479       .  S
C1394      C1395   1.409       .  A
C1395      C1396   1.399       .  A
C1395      C1400   1.508       .  S
C1396      C1397   1.405       .  A
C1396      H1401   1.084       .  S
C1397      C1398   1.419       .  A
C1398      C1402   1.507       .  S
C1399      C1404   1.411       .  A
C1399      C1408   1.399       .  A
C1400      H1416   1.110       .  S
C1400      H1417   1.109       .  S
C1400      H1418   1.111       .  S
C1402      H1413   1.109       .  S
C1402      H1414   1.111       .  S
C1402      H1415   1.110       .  S
C1404      C1405   1.407       .  A
C1404      C1409   1.506       .  S
C1405      C1406   1.406       .  A
C1405      H1410   1.084       .  S
C1406      C1407   1.417       .  A
C1407      C1408   1.401       .  A
C1407      C1411   1.509       .  S
C1408      H1412   1.084       .  S
C1409      H1419   1.111       .  S
C1409      H1420   1.110       .  S
C1409      H1421   1.110       .  S
C1411      H1422   1.111       .  S
C1411      H1423   1.110       .  S
C1411      H1424   1.109       .  S
C1425      C1426   1.401       .  A
C1425      C1430   1.406       .  A
C1425      H1435   1.084       .  S
C1426      C1431   1.481       .  S
C1426      C1427   1.410       .  A
C1427      C1428   1.401       .  A
C1427      C1432   1.507       .  S
C1428      C1429   1.404       .  A
C1428      H1433   1.084       .  S
C1429      C1430   1.418       .  A
C1430      C1434   1.509       .  S
C1431      C1436   1.410   1_655  A
C1431      C1440   1.398       .  A
C1432      H1448   1.110       .  S
C1432      H1449   1.110       .  S
C1432      H1450   1.111       .  S
C1434      H1445   1.109       .  S
C1434      H1446   1.111       .  S
C1434      H1447   1.111       .  S
C1436      C1437   1.406       .  A
C1436      C1441   1.506       .  S
C1437      C1438   1.407       .  A
C1437      H1442   1.084       .  S
C1438      C1439   1.421   1_455  A
C1439      C1440   1.401       .  A
C1439      C1443   1.509       .  S
C1440      H1444   1.085       .  S
C1441      H1451   1.111       .  S
C1441      H1452   1.110       .  S
C1441      H1453   1.110   1_455  S
C1443      H1454   1.111       .  S
C1443      H1455   1.107       .  S
C1443      H1456   1.111       .  S
C1457      C1458   1.404   1_455  A
C1457      C1462   1.411       .  A
C1457      H1467   1.084       .  S
C1458      C1463   1.483       .  S
C1458      C1459   1.408       .  A
C1459      C1460   1.398       .  A
C1459      C1464   1.508       .  S
C1460      C1461   1.407   1_655  A
C1460      H1465   1.084       .  S
C1461      C1462   1.419       .  A
C1462      C1466   1.507       .  S
C1463      C1468   1.410       .  A
C1463      C1472   1.402       .  A
C1464      H1480   1.109       .  S
C1464      H1481   1.111       .  S
C1464      H1482   1.111       .  S
C1466      H1477   1.110       .  S
C1466      H1478   1.111       .  S
C1466      H1479   1.110       .  S
C1468      C1469   1.404       .  A
C1468      C1473   1.506       .  S
C1469      C1470   1.405       .  A
C1469      H1474   1.084       .  S
C1470      C1471   1.418       .  A
C1471      C1472   1.404       .  A
C1471      C1475   1.510       .  S
C1472      H1476   1.085       .  S
C1473      H1483   1.110       .  S
C1473      H1484   1.110   1_655  S
C1473      H1485   1.110       .  S
C1475      H1486   1.111       .  S
C1475      H1487   1.106       .  S
C1475      H1488   1.110       .  S
C1489      C1490   1.401       .  A
C1489      C1494   1.400       .  A
C1489      H1499   1.085       .  S
C1490      C1495   1.478       .  S
C1490      C1491   1.410       .  A
C1491      C1492   1.402       .  A
C1491      C1496   1.506       .  S
C1492      C1493   1.404       .  A
C1492      H1497   1.082       .  S
C1493      C1494   1.415       .  A
C1494      C1498   1.509       .  S
C1495      C1500   1.407       .  A
C1495      C1504   1.400       .  A
C1496      H1512   1.110       .  S
C1496      H1513   1.110       .  S
C1496      H1514   1.111       .  S
C1498      H1509   1.110       .  S
C1498      H1510   1.111       .  S
C1498      H1511   1.106       .  S
C1500      C1501   1.398       .  A
C1500      C1505   1.509       .  S
C1501      C1502   1.409       .  A
C1501      H1506   1.083       .  S
C1502      C1503   1.422       .  A
C1503      C1504   1.407       .  A
C1503      C1507   1.508       .  S
C1504      H1508   1.084       .  S
C1505      H1515   1.111       .  S
C1505      H1516   1.110       .  S
C1505      H1517   1.110       .  S
C1507      H1518   1.111       .  S
C1507      H1519   1.110       .  S
C1507      H1520   1.110       .  S
C1521      C1522   1.399       .  A
C1521      C1526   1.401       .  A
C1521      H1531   1.084       .  S
C1522      C1527   1.476       .  S
C1522      C1523   1.410       .  A
C1523      C1524   1.404       .  A
C1523      C1528   1.506       .  S
C1524      C1525   1.404       .  A
C1524      H1529   1.084       .  S
C1525      C1526   1.416       .  A
C1526      C1530   1.509       .  S
C1527      C1532   1.411       .  A
C1527      C1536   1.399       .  A
C1528      H1544   1.110       .  S
C1528      H1545   1.109       .  S
C1528      H1546   1.111       .  S
C1530      H1541   1.109       .  S
C1530      H1542   1.111       .  S
C1530      H1543   1.111       .  S
C1532      C1533   1.402       .  A
C1532      C1537   1.507       .  S
C1533      C1534   1.404       .  A
C1533      H1538   1.083       .  S
C1534      C1535   1.417       .  A
C1535      C1536   1.402       .  A
C1535      C1539   1.509       .  S
C1536      H1540   1.084       .  S
C1537      H1547   1.111       .  S
C1537      H1548   1.110       .  S
C1537      H1549   1.109       .  S
C1539      H1550   1.111       .  S
C1539      H1551   1.109       .  S
C1539      H1552   1.111       .  S
C1553      C1554   1.401       .  A
C1553      C1558   1.405       .  A
C1553      H1563   1.084       .  S
C1554      C1559   1.480       .  S
C1554      C1555   1.411       .  A
C1555      C1556   1.402       .  A
C1555      C1560   1.507       .  S
C1556      C1557   1.405       .  A
C1556      H1561   1.084       .  S
C1557      C1558   1.418       .  A
C1558      C1562   1.508       .  S
C1559      C1564   1.410       .  A
C1559      C1568   1.396       .  A
C1560      H1576   1.110       .  S
C1560      H1577   1.110       .  S
C1560      H1578   1.111       .  S
C1562      H1573   1.109       .  S
C1562      H1574   1.111       .  S
C1562      H1575   1.111       .  S
C1564      C1565   1.409       .  A
C1564      C1569   1.505       .  S
C1565      C1566   1.408       .  A
C1565      H1570   1.084       .  S
C1566      C1567   1.420       .  A
C1567      C1568   1.399       .  A
C1567      C1571   1.508       .  S
C1568      H1572   1.085       .  S
C1569      H1579   1.111       .  S
C1569      H1580   1.110       .  S
C1569      H1581   1.110       .  S
C1571      H1582   1.111       .  S
C1571      H1583   1.111       .  S
C1571      H1584   1.108       .  S
C1585      C1586   1.402       .  A
C1585      C1590   1.402       .  A
C1585      H1595   1.085       .  S
C1586      C1591   1.479       .  S
C1586      C1587   1.410       .  A
C1587      C1588   1.403       .  A
C1587      C1592   1.506       .  S
C1588      C1589   1.402       .  A
C1588      H1593   1.084       .  S
C1589      C1590   1.415       .  A
C1590      C1594   1.509       .  S
C1591      C1596   1.408       .  A
C1591      C1600   1.400       .  A
C1592      H1608   1.110       .  S
C1592      H1609   1.110       .  S
C1592      H1610   1.111       .  S
C1594      H1605   1.110       .  S
C1594      H1606   1.111       .  S
C1594      H1607   1.108       .  S
C1596      C1597   1.401       .  A
C1596      C1601   1.508       .  S
C1597      C1598   1.407       .  A
C1597      H1602   1.084       .  S
C1598      C1599   1.421       .  A
C1599      C1600   1.406       .  A
C1599      C1603   1.508       .  S
C1600      H1604   1.084       .  S
C1601      H1611   1.111       .  S
C1601      H1612   1.110       .  S
C1601      H1613   1.110       .  S
C1603      H1614   1.111       .  S
C1603      H1615   1.110       .  S
C1603      H1616   1.110       .  S
C1617      C1618   1.400       .  A
C1617      C1622   1.408       .  A
C1617      H1627   1.084       .  S
C1618      C1623   1.479       .  S
C1618      C1619   1.407       .  A
C1619      C1620   1.400       .  A
C1619      C1624   1.509       .  S
C1620      C1621   1.411       .  A
C1620      H1625   1.083       .  S
C1621      C1622   1.423       .  A
C1622      C1626   1.508       .  S
C1623      C1628   1.412       .  A
C1623      C1632   1.402       .  A
C1624      H1640   1.110       .  S
C1624      H1641   1.109       .  S
C1624      H1642   1.111       .  S
C1626      H1637   1.110       .  S
C1626      H1638   1.111       .  S
C1626      H1639   1.110       .  S
C1628      C1629   1.405       .  A
C1628      C1633   1.506       .  S
C1629      C1630   1.402       .  A
C1629      H1634   1.084       .  S
C1630      C1631   1.411       .  A
C1631      C1632   1.402       .  A
C1631      C1635   1.508       .  S
C1632      H1636   1.084       .  S
C1633      H1643   1.111       .  S
C1633      H1644   1.110       .  S
C1633      H1645   1.109       .  S
C1635      H1646   1.111       .  S
C1635      H1647   1.111       .  S
C1635      H1648   1.110       .  S
C1649      C1650   1.399       .  A
C1649      C1654   1.401       .  A
C1649      H1659   1.084       .  S
C1650      C1655   1.477       .  S
C1650      C1651   1.410       .  A
C1651      C1652   1.403       .  A
C1651      C1656   1.506       .  S
C1652      C1653   1.404       .  A
C1652      H1657   1.082       .  S
C1653      C1654   1.418       .  A
C1654      C1658   1.510       .  S
C1655      C1660   1.408       .  A
C1655      C1664   1.400       .  A
C1656      H1672   1.110       .  S
C1656      H1673   1.111       .  S
C1656      H1674   1.111       .  S
C1658      H1669   1.109       .  S
C1658      H1670   1.111       .  S
C1658      H1671   1.109       .  S
C1660      C1661   1.399       .  A
C1660      C1665   1.507       .  S
C1661      C1662   1.406       .  A
C1661      H1666   1.084       .  S
C1662      C1663   1.421       .  A
C1663      C1664   1.405       .  A
C1663      C1667   1.508       .  S
C1664      H1668   1.084       .  S
C1665      H1675   1.111       .  S
C1665      H1676   1.110       .  S
C1665      H1677   1.110       .  S
C1667      H1678   1.110       .  S
C1667      H1679   1.108       .  S
C1667      H1680   1.111       .  S
C1681      C1682   1.401       .  A
C1681      C1686   1.402       .  A
C1681      H1691   1.085       .  S
C1682      C1687   1.480       .  S
C1682      C1683   1.411       .  A
C1683      C1684   1.403       .  A
C1683      C1688   1.506       .  S
C1684      C1685   1.403       .  A
C1684      H1689   1.084       .  S
C1685      C1686   1.415       .  A
C1686      C1690   1.508       .  S
C1687      C1692   1.407       .  A
C1687      C1696   1.402       .  A
C1688      H1704   1.110       .  S
C1688      H1705   1.110       .  S
C1688      H1706   1.111       .  S
C1690      H1701   1.111       .  S
C1690      H1702   1.110       .  S
C1690      H1703   1.108       .  S
C1692      C1693   1.398       .  A
C1692      C1697   1.508       .  S
C1693      C1694   1.409       .  A
C1693      H1698   1.084       .  S
C1694      C1695   1.420       .  A
C1695      C1696   1.408       .  A
C1695      C1699   1.507       .  S
C1696      H1700   1.084       .  S
C1697      H1707   1.111       .  S
C1697      H1708   1.110       .  S
C1697      H1709   1.110       .  S
C1699      H1710   1.110       .  S
C1699      H1711   1.110       .  S
C1699      H1712   1.111       .  S
C1713      C1714   1.401       .  A
C1713      C1718   1.400       .  A
C1713      H1723   1.085       .  S
C1714      C1719   1.479       .  S
C1714      C1715   1.411       .  A
C1715      C1716   1.404       .  A
C1715      C1720   1.506       .  S
C1716      C1717   1.403       .  A
C1716      H1721   1.084       .  S
C1717      C1718   1.414       .  A
C1718      C1722   1.508       .  S
C1719      C1724   1.409       .  A
C1719      C1728   1.400       .  A
C1720      H1736   1.110       .  S
C1720      H1737   1.110       .  S
C1720      H1738   1.111       .  S
C1722      H1733   1.111       .  S
C1722      H1734   1.110       .  S
C1722      H1735   1.108       .  S
C1724      C1725   1.404       .  A
C1724      C1729   1.506       .  S
C1725      C1726   1.407       .  A
C1725      H1730   1.084       .  S
C1726      C1727   1.419       .  A
C1727      C1728   1.403       .  A
C1727      C1731   1.507       .  S
C1728      H1732   1.084       .  S
C1729      H1739   1.110       .  S
C1729      H1740   1.110       .  S
C1729      H1741   1.110       .  S
C1731      H1742   1.109       .  S
C1731      H1743   1.110       .  S
C1731      H1744   1.111       .  S
C1745      C1746   1.400       .  A
C1745      C1750   1.399       .  A
C1745      H1755   1.085       .  S
C1746      C1751   1.472       .  S
C1746      C1747   1.408       .  A
C1747      C1748   1.402       .  A
C1747      C1752   1.506       .  S
C1748      C1749   1.405       .  A
C1748      H1753   1.084       .  S
C1749      C1750   1.414       .  A
C1750      C1754   1.509       .  S
C1751      C1756   1.407       .  A
C1751      C1760   1.399       .  A
C1752      H1768   1.110       .  S
C1752      H1769   1.110       .  S
C1752      H1770   1.111       .  S
C1754      H1765   1.110       .  S
C1754      H1766   1.111       .  S
C1754      H1767   1.108       .  S
C1756      C1757   1.399       .  A
C1756      C1761   1.507       .  S
C1757      C1758   1.406       .  A
C1757      H1762   1.084       .  S
C1758      C1759   1.419       .  A
C1759      C1760   1.403       .  A
C1759      C1763   1.508       .  S
C1760      H1764   1.084       .  S
C1761      H1771   1.111       .  S
C1761      H1772   1.110       .  S
C1761      H1773   1.110       .  S
C1763      H1774   1.111       .  S
C1763      H1775   1.110       .  S
C1763      H1776   1.110       .  S
C1777      C1778   1.399       .  A
C1777      C1782   1.399       .  A
C1777      H1787   1.085       .  S
C1778      C1783   1.474       .  S
C1778      C1779   1.409       .  A
C1779      C1780   1.404       .  A
C1779      C1784   1.506       .  S
C1780      C1781   1.405       .  A
C1780      H1785   1.084       .  S
C1781      C1782   1.416       .  A
C1782      C1786   1.510       .  S
C1783      C1788   1.408       .  A
C1783      C1792   1.397       .  A
C1784      H1800   1.110       .  S
C1784      H1801   1.110       .  S
C1784      H1802   1.108       .  S
C1786      H1797   1.110       .  S
C1786      H1798   1.111       .  S
C1786      H1799   1.108       .  S
C1788      C1789   1.401       .  A
C1788      C1793   1.507       .  S
C1789      C1790   1.407       .  A
C1789      H1794   1.084       .  S
C1790      C1791   1.422       .  A
C1791      C1792   1.402       .  A
C1791      C1795   1.509       .  S
C1792      H1796   1.084       .  S
C1793      H1803   1.111       .  S
C1793      H1804   1.110       .  S
C1793      H1805   1.110       .  S
C1795      H1806   1.111       .  S
C1795      H1807   1.110       .  S
C1795      H1808   1.110       .  S
C1809      C1810   1.400       .  A
C1809      C1814   1.404       .  A
C1809      H1819   1.085       .  S
C1810      C1815   1.474       .  S
C1810      C1811   1.409       .  A
C1811      C1812   1.398       .  A
C1811      C1816   1.508       .  S
C1812      C1813   1.403       .  A
C1812      H1817   1.084       .  S
C1813      C1814   1.418       .  A
C1814      C1818   1.508       .  S
C1815      C1820   1.406       .  A
C1815      C1824   1.399       .  A
C1816      H1832   1.110       .  S
C1816      H1833   1.110       .  S
C1816      H1834   1.111       .  S
C1818      H1829   1.110       .  S
C1818      H1830   1.111       .  S
C1818      H1831   1.106       .  S
C1820      C1821   1.401       .  A
C1820      C1825   1.506       .  S
C1821      C1822   1.408       .  A
C1821      H1826   1.083       .  S
C1822      C1823   1.419       .  A
C1823      C1824   1.400       .  A
C1823      C1827   1.510       .  S
C1824      H1828   1.084       .  S
C1825      H1835   1.111       .  S
C1825      H1836   1.110       .  S
C1825      H1837   1.110       .  S
C1827      H1838   1.111       .  S
C1827      H1839   1.111       .  S
C1827      H1840   1.109       .  S
C1841      C1842   1.400       .  A
C1841      C1846   1.404       .  A
C1841      H1851   1.084       .  S
C1842      C1847   1.479       .  S
C1842      C1843   1.407       .  A
C1843      C1844   1.403       .  A
C1843      C1848   1.506       .  S
C1844      C1845   1.409       .  A
C1844      H1849   1.084       .  S
C1845      C1846   1.419       .  A
C1846      C1850   1.509       .  S
C1847      C1852   1.411       .  A
C1847      C1856   1.401       .  A
C1848      H1864   1.110       .  S
C1848      H1865   1.110       .  S
C1848      H1866   1.111       .  S
C1850      H1861   1.111       .  S
C1850      H1862   1.111       .  S
C1850      H1863   1.109       .  S
C1852      C1853   1.403       .  A
C1852      C1857   1.507       .  S
C1853      C1854   1.403       .  A
C1853      H1858   1.084       .  S
C1854      C1855   1.414       .  A
C1855      C1856   1.405       .  A
C1855      C1859   1.507       .  S
C1856      H1860   1.084       .  S
C1857      H1867   1.111       .  S
C1857      H1868   1.110       .  S
C1857      H1869   1.110       .  S
C1859      H1870   1.111       .  S
C1859      H1871   1.111       .  S
C1859      H1872   1.110       .  S
C1873      C1874   1.401       .  A
C1873      C1878   1.402       .  A
C1873      H1883   1.084       .  S
C1874      C1879   1.476       .  S
C1874      C1875   1.409       .  A
C1875      C1876   1.402       .  A
C1875      C1880   1.506       .  S
C1876      C1877   1.403       .  A
C1876      H1881   1.084       .  S
C1877      C1878   1.412       .  A
C1878      C1882   1.505       .  S
C1879      C1884   1.408       .  A
C1879      C1888   1.399       .  A
C1880      H1896   1.110       .  S
C1880      H1897   1.110       .  S
C1880      H1898   1.111       .  S
C1882      H1893   1.111       .  S
C1882      H1894   1.105       .  S
C1882      H1895   1.110       .  S
C1884      C1885   1.401       .  A
C1884      C1889   1.505       .  S
C1885      C1886   1.406       .  A
C1885      H1890   1.084       .  S
C1886      C1887   1.420       .  A
C1887      C1888   1.401       .  A
C1887      C1891   1.511       .  S
C1888      H1892   1.084       .  S
C1889      H1899   1.110       .  S
C1889      H1900   1.110       .  S
C1889      H1901   1.110       .  S
C1891      H1902   1.111       .  S
C1891      H1903   1.109       .  S
C1891      H1904   1.111       .  S
C1905      C1906   1.400       .  A
C1905      C1910   1.404       .  A
C1905      H1915   1.084       .  S
C1906      C1911   1.483       .  S
C1906      C1907   1.410       .  A
C1907      C1908   1.405       .  A
C1907      C1912   1.506       .  S
C1908      C1909   1.407       .  A
C1908      H1913   1.084       .  S
C1909      C1910   1.418       .  A
C1910      C1914   1.505       .  S
C1911      C1916   1.410       .  A
C1911      C1920   1.400       .  A
C1912      H1928   1.110       .  S
C1912      H1929   1.110       .  S
C1912      H1930   1.111       .  S
C1914      H1925   1.107       .  S
C1914      H1926   1.111       .  S
C1914      H1927   1.111       .  S
C1916      C1917   1.404       .  A
C1916      C1921   1.507       .  S
C1917      C1918   1.407       .  A
C1917      H1922   1.084       .  S
C1918      C1919   1.421       .  A
C1919      C1920   1.406       .  A
C1919      C1923   1.509       .  S
C1920      H1924   1.084       .  S
C1921      H1931   1.111       .  S
C1921      H1932   1.110       .  S
C1921      H1933   1.110       .  S
C1923      H1934   1.111       .  S
C1923      H1935   1.111       .  S
C1923      H1936   1.110       .  S
C1937      C1938   1.402       .  A
C1937      C1942   1.408       .  A
C1937      H1947   1.084       .  S
C1938      C1943   1.482       .  S
C1938      C1939   1.409       .  A
C1939      C1940   1.401       .  A
C1939      C1944   1.507       .  S
C1940      C1941   1.406       .  A
C1940      H1945   1.083       .  S
C1941      C1942   1.419       .  A
C1942      C1946   1.507       .  S
C1943      C1948   1.411       .  A
C1943      C1952   1.400       .  A
C1944      H1960   1.110       .  S
C1944      H1961   1.110       .  S
C1944      H1962   1.111       .  S
C1946      H1957   1.109       .  S
C1946      H1958   1.111       .  S
C1946      H1959   1.110       .  S
C1948      C1949   1.407       .  A
C1948      C1953   1.506       .  S
C1949      C1950   1.406       .  A
C1949      H1954   1.084       .  S
C1950      C1951   1.415       .  A
C1951      C1952   1.402       .  A
C1951      C1955   1.509       .  S
C1952      H1956   1.084       .  S
C1953      H1963   1.111       .  S
C1953      H1964   1.110       .  S
C1953      H1965   1.110       .  S
C1955      H1966   1.111       .  S
C1955      H1967   1.111       .  S
C1955      H1968   1.109       .  S
C1969      C1970   1.399       .  A
C1969      C1974   1.403       .  A
C1969      H1979   1.084       .  S
C1970      C1975   1.482       .  S
C1970      C1971   1.410       .  A
C1971      C1972   1.407       .  A
C1971      C1976   1.506       .  S
C1972      C1973   1.406       .  A
C1972      H1977   1.084       .  S
C1973      C1974   1.418       .  A
C1974      C1978   1.507       .  S
C1975      C1980   1.410       .  A
C1975      C1984   1.401       .  A
C1976      H1992   1.110       .  S
C1976      H1993   1.110       .  S
C1976      H1994   1.111       .  S
C1978      H1989   1.110       .  S
C1978      H1990   1.111       .  S
C1978      H1991   1.108       .  S
C1980      C1981   1.405       .  A
C1980      C1985   1.505       .  S
C1981      C1982   1.405       .  A
C1981      H1986   1.084       .  S
C1982      C1983   1.416       .  A
C1983      C1984   1.403       .  A
C1983      C1987   1.505       .  S
C1984      H1988   1.085       .  S
C1985      H1995   1.108       .  S
C1985      H1996   1.110       .  S
C1985      H1997   1.110       .  S
C1987      H1998   1.110       .  S
C1987      H1999   1.107       .  S
C1987      H2000   1.111       .  S
C2001      C2002   1.402       .  A
C2001      C2006   1.402       .  A
C2001      H2011   1.084       .  S
C2002      C2007   1.487       .  S
C2002      C2003   1.413       .  A
C2003      C2004   1.405       .  A
C2003      C2008   1.506       .  S
C2004      C2005   1.403       .  A
C2004      H2009   1.084       .  S
C2005      C2006   1.417       .  A
C2006      C2010   1.510       .  S
C2007      C2012   1.410       .  A
C2007      C2016   1.401       .  A
C2008      H2024   1.109       .  S
C2008      H2025   1.110       .  S
C2008      H2026   1.111       .  S
C2010      H2021   1.111       .  S
C2010      H2022   1.110       .  S
C2010      H2023   1.107       .  S
C2012      C2013   1.403       .  A
C2012      C2017   1.509       .  S
C2013      C2014   1.411       .  A
C2013      H2018   1.083       .  S
C2014      C2015   1.422       .  A
C2015      C2016   1.408       .  A
C2015      C2019   1.508       .  S
C2016      H2020   1.084       .  S
C2017      H2027   1.111       .  S
C2017      H2028   1.109       .  S
C2017      H2029   1.110       .  S
C2019      H2030   1.110       .  S
C2019      H2031   1.110       .  S
C2019      H2032   1.111       .  S
C2033      C2034   1.401       .  A
C2033      C2038   1.404       .  A
C2033      H2043   1.085       .  S
C2034      C2039   1.481       .  S
C2034      C2035   1.410       .  A
C2035      C2036   1.402       .  A
C2035      C2040   1.507       .  S
C2036      C2037   1.406       .  A
C2036      H2041   1.084       .  S
C2037      C2038   1.420       .  A
C2038      C2042   1.509       .  S
C2039      C2044   1.411       .  A
C2039      C2048   1.403       .  A
C2040      H2056   1.110       .  S
C2040      H2057   1.110       .  S
C2040      H2058   1.111       .  S
C2042      H2053   1.111       .  S
C2042      H2054   1.110       .  S
C2042      H2055   1.104       .  S
C2044      C2045   1.399       .  A
C2044      C2049   1.507       .  S
C2045      C2046   1.400       .  A
C2045      H2050   1.080       .  S
C2046      C2047   1.418       .  A
C2047      C2048   1.405       .  A
C2047      C2051   1.509       .  S
C2048      H2052   1.084       .  S
C2049      H2059   1.110       .  S
C2049      H2060   1.109       .  S
C2049      H2061   1.110       .  S
C2051      H2062   1.110       .  S
C2051      H2063   1.106       .  S
C2051      H2064   1.111       .  S
C2065      C2066   1.401       .  A
C2065      C2070   1.405       .  A
C2065      H2075   1.084       .  S
C2066      C2071   1.478       .  S
C2066      C2067   1.410       .  A
C2067      C2068   1.400       .  A
C2067      C2072   1.507       .  S
C2068      C2069   1.403       .  A
C2068      H2073   1.084       .  S
C2069      C2070   1.417       .  A
C2070      C2074   1.508       .  S
C2071      C2076   1.409       .  A
C2071      C2080   1.400       .  A
C2072      H2088   1.110       .  S
C2072      H2089   1.110       .  S
C2072      H2090   1.111       .  S
C2074      H2085   1.109       .  S
C2074      H2086   1.111       .  S
C2074      H2087   1.111       .  S
C2076      C2077   1.402       .  A
C2076      C2081   1.506       .  S
C2077      C2078   1.405       .  A
C2077      H2082   1.084       .  S
C2078      C2079   1.419       .  A
C2079      C2080   1.404       .  A
C2079      C2083   1.508       .  S
C2080      H2084   1.084       .  S
C2081      H2091   1.111       .  S
C2081      H2092   1.110       .  S
C2081      H2093   1.110       .  S
C2083      H2094   1.111       .  S
C2083      H2095   1.110       .  S
C2083      H2096   1.109       .  S
C2097      C2098   1.400       .  A
C2097      C2102   1.402       .  A
C2097      H2107   1.085       .  S
C2098      C2103   1.478       .  S
C2098      C2099   1.409       .  A
C2099      C2100   1.403       .  A
C2099      C2104   1.506       .  S
C2100      C2101   1.404       .  A
C2100      H2105   1.084       .  S
C2101      C2102   1.419       .  A
C2102      C2106   1.509       .  S
C2103      C2108   1.408       .  A
C2103      C2112   1.401       .  A
C2104      H2120   1.110       .  S
C2104      H2121   1.110       .  S
C2104      H2122   1.111       .  S
C2106      H2117   1.110       .  S
C2106      H2118   1.111       .  S
C2106      H2119   1.106       .  S
C2108      C2109   1.399       .  A
C2108      C2113   1.507       .  S
C2109      C2110   1.407       .  A
C2109      H2114   1.084       .  S
C2110      C2111   1.417       .  A
C2111      C2112   1.406       .  A
C2111      C2115   1.506       .  S
C2112      H2116   1.084       .  S
C2113      H2123   1.111       .  S
C2113      H2124   1.110       .  S
C2113      H2125   1.110       .  S
C2115      H2126   1.110       .  S
C2115      H2127   1.110       .  S
C2115      H2128   1.111       .  S
C2129      C2130   1.401       .  A
C2129      C2134   1.406       .  A
C2129      H2139   1.084       .  S
C2130      C2135   1.483       .  S
C2130      C2131   1.411       .  A
C2131      C2132   1.404       .  A
C2131      C2136   1.507       .  S
C2132      C2133   1.405       .  A
C2132      H2137   1.084       .  S
C2133      C2134   1.417       .  A
C2134      C2138   1.504       .  S
C2135      C2140   1.410       .  A
C2135      C2144   1.399       .  A
C2136      H2152   1.110       .  S
C2136      H2153   1.110       .  S
C2136      H2154   1.111       .  S
C2138      H2149   1.109       .  S
C2138      H2150   1.111       .  S
C2138      H2151   1.110       .  S
C2140      C2141   1.406       .  A
C2140      C2145   1.505       .  S
C2141      C2142   1.406       .  A
C2141      H2146   1.084       .  S
C2142      C2143   1.420       .  A
C2143      C2144   1.403       .  A
C2143      C2147   1.509       .  S
C2144      H2148   1.084       .  S
C2145      H2155   1.111       .  S
C2145      H2156   1.110       .  S
C2145      H2157   1.109       .  S
C2147      H2158   1.111       .  S
C2147      H2159   1.110       .  S
C2147      H2160   1.109       .  S
C2161      C2162   1.400       .  A
C2161      C2166   1.403       .  A
C2161      H2171   1.084       .  S
C2162      C2167   1.482       .  S
C2162      C2163   1.410       .  A
C2163      C2164   1.405       .  A
C2163      C2168   1.506       .  S
C2164      C2165   1.406       .  A
C2164      H2169   1.084       .  S
C2165      C2166   1.419       .  A
C2166      C2170   1.509       .  S
C2167      C2172   1.410       .  A
C2167      C2176   1.400       .  A
C2168      H2184   1.110       .  S
C2168      H2185   1.110       .  S
C2168      H2186   1.111       .  S
C2170      H2181   1.109       .  S
C2170      H2182   1.111       .  S
C2170      H2183   1.110       .  S
C2172      C2173   1.402       .  A
C2172      C2177   1.507       .  S
C2173      C2174   1.405       .  A
C2173      H2178   1.084       .  S
C2174      C2175   1.419       .  A
C2175      C2176   1.406       .  A
C2175      C2179   1.509       .  S
C2176      H2180   1.084       .  S
C2177      H2187   1.109       .  S
C2177      H2188   1.109       .  S
C2177      H2189   1.110       .  S
C2179      H2190   1.111       .  S
C2179      H2191   1.110       .  S
C2179      H2192   1.110       .  S
C2193      C2194   1.400       .  A
C2193      C2198   1.400       .  A
C2193      H2203   1.085       .  S
C2194      C2199   1.472       .  S
C2194      C2195   1.407       .  A
C2195      C2196   1.401       .  A
C2195      C2200   1.506       .  S
C2196      C2197   1.403       .  A
C2196      H2201   1.079       .  S
C2197      C2198   1.416       .  A
C2198      C2202   1.509       .  S
C2199      C2204   1.407       .  A
C2199      C2208   1.400       .  A
C2200      H2216   1.110       .  S
C2200      H2217   1.110       .  S
C2200      H2218   1.110       .  S
C2202      H2213   1.110       .  S
C2202      H2214   1.111       .  S
C2202      H2215   1.107       .  S
C2204      C2205   1.398       .  A
C2204      C2209   1.508       .  S
C2205      C2206   1.405       .  A
C2205      H2210   1.084       .  S
C2206      C2207   1.418       .  A
C2207      C2208   1.404       .  A
C2207      C2211   1.507       .  S
C2208      H2212   1.084       .  S
C2209      H2219   1.111       .  S
C2209      H2220   1.110       .  S
C2209      H2221   1.110       .  S
C2211      H2222   1.111       .  S
C2211      H2223   1.110       .  S
C2211      H2224   1.109       .  S
C2225      C2226   1.399       .  A
C2225      C2230   1.401       .  A
C2225      H2235   1.084       .  S
C2226      C2231   1.472       .  S
C2226      C2227   1.408       .  A
C2227      C2228   1.400       .  A
C2227      C2232   1.507       .  S
C2228      C2229   1.405       .  A
C2228      H2233   1.084       .  S
C2229      C2230   1.416       .  A
C2230      C2234   1.508       .  S
C2231      C2236   1.408       .  A
C2231      C2240   1.399       .  A
C2232      H2248   1.110       .  S
C2232      H2249   1.110       .  S
C2232      H2250   1.111       .  S
C2234      H2245   1.111       .  S
C2234      H2246   1.111       .  S
C2234      H2247   1.109       .  S
C2236      C2237   1.399       .  A
C2236      C2241   1.507       .  S
C2237      C2238   1.403       .  A
C2237      H2242   1.080       .  S
C2238      C2239   1.417       .  A
C2239      C2240   1.399       .  A
C2239      C2243   1.509       .  S
C2240      H2244   1.085       .  S
C2241      H2251   1.111       .  S
C2241      H2252   1.110       .  S
C2241      H2253   1.110       .  S
C2243      H2254   1.111       .  S
C2243      H2255   1.106       .  S
C2243      H2256   1.110       .  S
C2257      C2258   1.399       .  A
C2257      C2262   1.401       .  A
C2257      H2267   1.084       .  S
C2258      C2263   1.480       .  S
C2258      C2259   1.409       .  A
C2259      C2260   1.405       .  A
C2259      C2264   1.505       .  S
C2260      C2261   1.407       .  A
C2260      H2265   1.084       .  S
C2261      C2262   1.421       .  A
C2262      C2266   1.510       .  S
C2263      C2268   1.410       .  A
C2263      C2272   1.401       .  A
C2264      H2280   1.110       .  S
C2264      H2281   1.110       .  S
C2264      H2282   1.111       .  S
C2266      H2277   1.110       .  S
C2266      H2278   1.111       .  S
C2266      H2279   1.111       .  S
C2268      C2269   1.401       .  A
C2268      C2273   1.507       .  S
C2269      C2270   1.405       .  A
C2269      H2274   1.084       .  S
C2270      C2271   1.419       .  A
C2271      C2272   1.405       .  A
C2271      C2275   1.508       .  S
C2272      H2276   1.085       .  S
C2273      H2283   1.111       .  S
C2273      H2284   1.110       .  S
C2273      H2285   1.110       .  S
C2275      H2286   1.111       .  S
C2275      H2287   1.105       .  S
C2275      H2288   1.110       .  S
C2289      C2290   1.399   1_455  A
C2289      C2294   1.403       .  A
C2289      H2299   1.084       .  S
C2290      C2295   1.483       .  S
C2290      C2291   1.410       .  A
C2291      C2292   1.407   1_655  A
C2291      C2296   1.506       .  S
C2292      C2293   1.408       .  A
C2292      H2297   1.084       .  S
C2293      C2294   1.421       .  A
C2294      C2298   1.509       .  S
C2295      C2300   1.411       .  A
C2295      C2304   1.403       .  A
C2296      H2312   1.110       .  S
C2296      H2313   1.110       .  S
C2296      H2314   1.111       .  S
C2298      H2309   1.109       .  S
C2298      H2310   1.111       .  S
C2298      H2311   1.111       .  S
C2300      C2301   1.401       .  A
C2300      C2305   1.507       .  S
C2301      C2302   1.403       .  A
C2301      H2306   1.084       .  S
C2302      C2303   1.417       .  A
C2303      C2304   1.409       .  A
C2303      C2307   1.508       .  S
C2304      H2308   1.084       .  S
C2305      H2315   1.111       .  S
C2305      H2316   1.110       .  S
C2305      H2317   1.110       .  S
C2307      H2318   1.111       .  S
C2307      H2319   1.109       .  S
C2307      H2320   1.109       .  S
C2321      C2322   1.400       .  A
C2321      C2326   1.405       .  A
C2321      H2331   1.084       .  S
C2322      C2327   1.473       .  S
C2322      C2323   1.406       .  A
C2323      C2324   1.397       .  A
C2323      C2328   1.508       .  S
C2324      C2325   1.406       .  A
C2324      H2329   1.080       .  S
C2325      C2326   1.419       .  A
C2326      C2330   1.508       .  S
C2327      C2332   1.409       .  A
C2327      C2336   1.399       .  A
C2328      H2344   1.110       .  S
C2328      H2345   1.110       .  S
C2328      H2346   1.110       .  S
C2330      H2341   1.109       .  S
C2330      H2342   1.111       .  S
C2330      H2343   1.111       .  S
C2332      C2333   1.403       .  A
C2332      C2337   1.506       .  S
C2333      C2334   1.404       .  A
C2333      H2338   1.084       .  S
C2334      C2335   1.415       .  A
C2335      C2336   1.398       .  A
C2335      C2339   1.508       .  S
C2336      H2340   1.085       .  S
C2337      H2347   1.111       .  S
C2337      H2348   1.110       .  S
C2337      H2349   1.110       .  S
C2339      H2350   1.111       .  S
C2339      H2351   1.107       .  S
C2339      H2352   1.110       .  S
C2353      C2354   1.401       .  A
C2353      C2358   1.408   1_655  A
C2353      H2363   1.084       .  S
C2354      C2359   1.478       .  S
C2354      C2355   1.406   1_655  A
C2355      C2356   1.399       .  A
C2355      C2360   1.508       .  S
C2356      C2357   1.409       .  A
C2356      H2361   1.084       .  S
C2357      C2358   1.421       .  A
C2358      C2362   1.506   1_455  S
C2359      C2364   1.410       .  A
C2359      C2368   1.402       .  A
C2360      H2376   1.110       .  S
C2360      H2377   1.110   1_455  S
C2360      H2378   1.111       .  S
C2362      H2373   1.109   1_655  S
C2362      H2374   1.111       .  S
C2362      H2375   1.110   1_655  S
C2364      C2365   1.402       .  A
C2364      C2369   1.506       .  S
C2365      C2366   1.403       .  A
C2365      H2370   1.084       .  S
C2366      C2367   1.414       .  A
C2367      C2368   1.403       .  A
C2367      C2371   1.508       .  S
C2368      H2372   1.084       .  S
C2369      H2379   1.111       .  S
C2369      H2380   1.110       .  S
C2369      H2381   1.110       .  S
C2371      H2382   1.111       .  S
C2371      H2383   1.109       .  S
C2371      H2384   1.109       .  S
C2385      C2386   1.398       .  A
C2385      C2390   1.404   1_655  A
C2385      H2395   1.084       .  S
C2386      C2391   1.478       .  S
C2386      C2387   1.410   1_655  A
C2387      C2388   1.402       .  A
C2387      C2392   1.508       .  S
C2388      C2389   1.407       .  A
C2388      H2393   1.084       .  S
C2389      C2390   1.423       .  A
C2390      C2394   1.509       .  S
C2391      C2396   1.410       .  A
C2391      C2400   1.401       .  A
C2392      H2408   1.109       .  S
C2392      H2409   1.111   1_455  S
C2392      H2410   1.111       .  S
C2394      H2405   1.111   1_455  S
C2394      H2406   1.110       .  S
C2394      H2407   1.110       .  S
C2396      C2397   1.403       .  A
C2396      C2401   1.506       .  S
C2397      C2398   1.404       .  A
C2397      H2402   1.084       .  S
C2398      C2399   1.416       .  A
C2399      C2400   1.399       .  A
C2399      C2403   1.510       .  S
C2400      H2404   1.085       .  S
C2401      H2411   1.111       .  S
C2401      H2412   1.110       .  S
C2401      H2413   1.110       .  S
C2403      H2414   1.111       .  S
C2403      H2415   1.108       .  S
C2403      H2416   1.110       .  S
C2417      C2418   1.400       .  A
C2417      C2422   1.408       .  A
C2417      H2427   1.084       .  S
C2418      C2423   1.480       .  S
C2418      C2419   1.408       .  A
C2419      C2420   1.400       .  A
C2419      C2424   1.508       .  S
C2420      C2421   1.406       .  A
C2420      H2425   1.084       .  S
C2421      C2422   1.423       .  A
C2422      C2426   1.508       .  S
C2423      C2428   1.411       .  A
C2423      C2432   1.399       .  A
C2424      H2440   1.110       .  S
C2424      H2441   1.110       .  S
C2424      H2442   1.111       .  S
C2426      H2437   1.110       .  S
C2426      H2438   1.111       .  S
C2426      H2439   1.110       .  S
C2428      C2429   1.404       .  A
C2428      C2433   1.506       .  S
C2429      C2430   1.403       .  A
C2429      H2434   1.084       .  S
C2430      C2431   1.415       .  A
C2431      C2432   1.401       .  A
C2431      C2435   1.504       .  S
C2432      H2436   1.085       .  S
C2433      H2443   1.111       .  S
C2433      H2444   1.110       .  S
C2433      H2445   1.110       .  S
C2435      H2446   1.109       .  S
C2435      H2447   1.107       .  S
C2435      H2448   1.111       .  S
C2449      C2450   1.399       .  A
C2449      C2454   1.399       .  A
C2449      H2459   1.085       .  S
C2450      C2455   1.476       .  S
C2450      C2451   1.411       .  A
C2451      C2452   1.404       .  A
C2451      C2456   1.507       .  S
C2452      C2453   1.403       .  A
C2452      H2457   1.084       .  S
C2453      C2454   1.416       .  A
C2454      C2458   1.509       .  S
C2455      C2460   1.409   1_655  A
C2455      C2464   1.400       .  A
C2456      H2472   1.110       .  S
C2456      H2473   1.109       .  S
C2456      H2474   1.111       .  S
C2458      H2469   1.110       .  S
C2458      H2470   1.111       .  S
C2458      H2471   1.107       .  S
C2460      C2461   1.400       .  A
C2460      C2465   1.508       .  S
C2461      C2462   1.406       .  A
C2461      H2466   1.083       .  S
C2462      C2463   1.418       .  A
C2463      C2464   1.405   1_455  A
C2463      C2467   1.507       .  S
C2464      H2468   1.084       .  S
C2465      H2475   1.111       .  S
C2465      H2476   1.110       .  S
C2465      H2477   1.109   1_455  S
C2467      H2478   1.111   1_455  S
C2467      H2479   1.111       .  S
C2467      H2480   1.108       .  S
C2481      C2482   1.401       .  A
C2481      C2486   1.400       .  A
C2481      H2491   1.085       .  S
C2482      C2487   1.479       .  S
C2482      C2483   1.411       .  A
C2483      C2484   1.405       .  A
C2483      C2488   1.506       .  S
C2484      C2485   1.405       .  A
C2484      H2489   1.084       .  S
C2485      C2486   1.415       .  A
C2486      C2490   1.510       .  S
C2487      C2492   1.409       .  A
C2487      C2496   1.398       .  A
C2488      H2504   1.110       .  S
C2488      H2505   1.109       .  S
C2488      H2506   1.111       .  S
C2490      H2501   1.111       .  S
C2490      H2502   1.110       .  S
C2490      H2503   1.107       .  S
C2492      C2493   1.405       .  A
C2492      C2497   1.506       .  S
C2493      C2494   1.408       .  A
C2493      H2498   1.084       .  S
C2494      C2495   1.421       .  A
C2495      C2496   1.403       .  A
C2495      C2499   1.508       .  S
C2496      H2500   1.085       .  S
C2497      H2507   1.111       .  S
C2497      H2508   1.110       .  S
C2497      H2509   1.109       .  S
C2499      H2510   1.111       .  S
C2499      H2511   1.109       .  S
C2499      H2512   1.110       .  S
C2513      C2514   1.397       .  A
C2513      C2518   1.401       .  A
C2513      H2523   1.085       .  S
C2514      C2519   1.473       .  S
C2514      C2515   1.407       .  A
C2515      C2516   1.402       .  A
C2515      C2520   1.506       .  S
C2516      C2517   1.407       .  A
C2516      H2521   1.084       .  S
C2517      C2518   1.421       .  A
C2518      C2522   1.509       .  S
C2519      C2524   1.410       .  A
C2519      C2528   1.401       .  A
C2520      H2536   1.110       .  S
C2520      H2537   1.110       .  S
C2520      H2538   1.111       .  S
C2522      H2533   1.109       .  S
C2522      H2534   1.111       .  S
C2522      H2535   1.110       .  S
C2524      C2525   1.398       .  A
C2524      C2529   1.508       .  S
C2525      C2526   1.401       .  A
C2525      H2530   1.085       .  S
C2526      C2527   1.415       .  A
C2527      C2528   1.404       .  A
C2527      C2531   1.508       .  S
C2528      H2532   1.084       .  S
C2529      H2539   1.111       .  S
C2529      H2540   1.110       .  S
C2529      H2541   1.110       .  S
C2531      H2542   1.111       .  S
C2531      H2543   1.110       .  S
C2531      H2544   1.109       .  S
C2545      C2546   1.400       .  A
C2545      C2550   1.399       .  A
C2545      H2555   1.085       .  S
C2546      C2551   1.474       .  S
C2546      C2547   1.408       .  A
C2547      C2548   1.403       .  A
C2547      C2552   1.506       .  S
C2548      C2549   1.404       .  A
C2548      H2553   1.084       .  S
C2549      C2550   1.417       .  A
C2550      C2554   1.510       .  S
C2551      C2556   1.407   1_655  A
C2551      C2560   1.400       .  A
C2552      H2568   1.110       .  S
C2552      H2569   1.110       .  S
C2552      H2570   1.111       .  S
C2554      H2565   1.110       .  S
C2554      H2566   1.111       .  S
C2554      H2567   1.107       .  S
C2556      C2557   1.398       .  A
C2556      C2561   1.507       .  S
C2557      C2558   1.405       .  A
C2557      H2562   1.084       .  S
C2558      C2559   1.420       .  A
C2559      C2560   1.403   1_455  A
C2559      C2563   1.509       .  S
C2560      H2564   1.085       .  S
C2561      H2571   1.111       .  S
C2561      H2572   1.110       .  S
C2561      H2573   1.110   1_455  S
C2563      H2574   1.111   1_455  S
C2563      H2575   1.104       .  S
C2563      H2576   1.111   1_455  S
C2577      C2578   1.399       .  A
C2577      C2582   1.403       .  A
C2577      H2587   1.084       .  S
C2578      C2583   1.481       .  S
C2578      C2579   1.410       .  A
C2579      C2580   1.406       .  A
C2579      C2584   1.505       .  S
C2580      C2581   1.406       .  A
C2580      H2585   1.083       .  S
C2581      C2582   1.419       .  A
C2582      C2586   1.510       .  S
C2583      C2588   1.410       .  A
C2583      C2592   1.401       .  A
C2584      H2600   1.110       .  S
C2584      H2601   1.110       .  S
C2584      H2602   1.111       .  S
C2586      H2597   1.109       .  S
C2586      H2598   1.111       .  S
C2586      H2599   1.111       .  S
C2588      C2589   1.401       .  A
C2588      C2593   1.507       .  S
C2589      C2590   1.405       .  A
C2589      H2594   1.084       .  S
C2590      C2591   1.416       .  A
C2591      C2592   1.406       .  A
C2591      C2595   1.507       .  S
C2592      H2596   1.084       .  S
C2593      H2603   1.111       .  S
C2593      H2604   1.110       .  S
C2593      H2605   1.110       .  S
C2595      H2606   1.111       .  S
C2595      H2607   1.111       .  S
C2595      H2608   1.110       .  S
C2609      C2610   1.397   1_455  A
C2609      C2614   1.399       .  A
C2609      H2619   1.085       .  S
C2610      C2615   1.474       .  S
C2610      C2611   1.407       .  A
C2611      C2612   1.404   1_655  A
C2611      C2616   1.506       .  S
C2612      C2613   1.408       .  A
C2612      H2617   1.084       .  S
C2613      C2614   1.421       .  A
C2614      C2618   1.509       .  S
C2615      C2620   1.411       .  A
C2615      C2624   1.399       .  A
C2616      H2632   1.110       .  S
C2616      H2633   1.110       .  S
C2616      H2634   1.111       .  S
C2618      H2629   1.109       .  S
C2618      H2630   1.111       .  S
C2618      H2631   1.110       .  S
C2620      C2621   1.399       .  A
C2620      C2625   1.508       .  S
C2621      C2622   1.402       .  A
C2621      H2626   1.085       .  S
C2622      C2623   1.419       .  A
C2623      C2624   1.401       .  A
C2623      C2627   1.510       .  S
C2624      H2628   1.085       .  S
C2625      H2635   1.111       .  S
C2625      H2636   1.110   1_655  S
C2625      H2637   1.110       .  S
C2627      H2638   1.110       .  S
C2627      H2639   1.105       .  S
C2627      H2640   1.110       .  S
C2641      C2642   1.400       .  A
C2641      C2646   1.407       .  A
C2641      H2651   1.084       .  S
C2642      C2647   1.480       .  S
C2642      C2643   1.407       .  A
C2643      C2644   1.400       .  A
C2643      C2648   1.508       .  S
C2644      C2645   1.410       .  A
C2644      H2649   1.084       .  S
C2645      C2646   1.422       .  A
C2646      C2650   1.508       .  S
C2647      C2652   1.412       .  A
C2647      C2656   1.402       .  A
C2648      H2664   1.110       .  S
C2648      H2665   1.111       .  S
C2648      H2666   1.111       .  S
C2650      H2661   1.111       .  S
C2650      H2662   1.110       .  S
C2650      H2663   1.110       .  S
C2652      C2653   1.402       .  A
C2652      C2657   1.506       .  S
C2653      C2654   1.400       .  A
C2653      H2658   1.083       .  S
C2654      C2655   1.411       .  A
C2655      C2656   1.403       .  A
C2655      C2659   1.507       .  S
C2656      H2660   1.084       .  S
C2657      H2667   1.111       .  S
C2657      H2668   1.110       .  S
C2657      H2669   1.110       .  S
C2659      H2670   1.109       .  S
C2659      H2671   1.111       .  S
C2659      H2672   1.111       .  S
C2673      C2674   1.400       .  A
C2673      C2678   1.405   1_655  A
C2673      H2683   1.084       .  S
C2674      C2679   1.475       .  S
C2674      C2675   1.408   1_655  A
C2675      C2676   1.400       .  A
C2675      C2680   1.508       .  S
C2676      C2677   1.408       .  A
C2676      H2681   1.084       .  S
C2677      C2678   1.420       .  A
C2678      C2682   1.508       .  S
C2679      C2684   1.410       .  A
C2679      C2688   1.400       .  A
C2680      H2696   1.110       .  S
C2680      H2697   1.109   1_455  S
C2680      H2698   1.111       .  S
C2682      H2693   1.110       .  S
C2682      H2694   1.111   1_455  S
C2682      H2695   1.111       .  S
C2684      C2685   1.403       .  A
C2684      C2689   1.506       .  S
C2685      C2686   1.403       .  A
C2685      H2690   1.084       .  S
C2686      C2687   1.414       .  A
C2687      C2688   1.399       .  A
C2687      C2691   1.506       .  S
C2688      H2692   1.085       .  S
C2689      H2699   1.111       .  S
C2689      H2700   1.110       .  S
C2689      H2701   1.109       .  S
C2691      H2702   1.111       .  S
C2691      H2703   1.107       .  S
C2691      H2704   1.110       .  S
C2705      C2706   1.402       .  A
C2705      C2710   1.405       .  A
C2705      H2715   1.084       .  S
C2706      C2711   1.477       .  S
C2706      C2707   1.410       .  A
C2707      C2708   1.399       .  A
C2707      C2712   1.508       .  S
C2708      C2709   1.404       .  A
C2708      H2713   1.084       .  S
C2709      C2710   1.416       .  A
C2710      C2714   1.507       .  S
C2711      C2716   1.407       .  A
C2711      C2720   1.399       .  A
C2712      H2728   1.109       .  S
C2712      H2729   1.110       .  S
C2712      H2730   1.111       .  S
C2714      H2725   1.110       .  S
C2714      H2726   1.111       .  S
C2714      H2727   1.110       .  S
C2716      C2717   1.402       .  A
C2716      C2721   1.506       .  S
C2717      C2718   1.407       .  A
C2717      H2722   1.079       .  S
C2718      C2719   1.421       .  A
C2719      C2720   1.401       .  A
C2719      C2723   1.508       .  S
C2720      H2724   1.084       .  S
C2721      H2731   1.111       .  S
C2721      H2732   1.110       .  S
C2721      H2733   1.110       .  S
C2723      H2734   1.108       .  S
C2723      H2735   1.109       .  S
C2723      H2736   1.111       .  S
C2737      C2738   1.402       .  A
C2737      C2742   1.401       .  A
C2737      H2747   1.084       .  S
C2738      C2743   1.473       .  S
C2738      C2739   1.409       .  A
C2739      C2740   1.397       .  A
C2739      C2744   1.507       .  S
C2740      C2741   1.399       .  A
C2740      H2745   1.080       .  S
C2741      C2742   1.414       .  A
C2742      C2746   1.509       .  S
C2743      C2748   1.407   1_655  A
C2743      C2752   1.398       .  A
C2744      H2760   1.110       .  S
C2744      H2761   1.110       .  S
C2744      H2762   1.111       .  S
C2746      H2757   1.111       .  S
C2746      H2758   1.110       .  S
C2746      H2759   1.108       .  S
C2748      C2749   1.400       .  A
C2748      C2753   1.508       .  S
C2749      C2750   1.408       .  A
C2749      H2754   1.084       .  S
C2750      C2751   1.421       .  A
C2751      C2752   1.403   1_455  A
C2751      C2755   1.508       .  S
C2752      H2756   1.084       .  S
C2753      H2763   1.111       .  S
C2753      H2764   1.110   1_455  S
C2753      H2765   1.111       .  S
C2755      H2766   1.111   1_455  S
C2755      H2767   1.109       .  S
C2755      H2768   1.110       .  S
C2769      C2770   1.401       .  A
C2769      C2774   1.406       .  A
C2769      H2779   1.084       .  S
C2770      C2775   1.475       .  S
C2770      C2771   1.407       .  A
C2771      C2772   1.398       .  A
C2771      C2776   1.508       .  S
C2772      C2773   1.407       .  A
C2772      H2777   1.084       .  S
C2773      C2774   1.419       .  A
C2774      C2778   1.507       .  S
C2775      C2780   1.409       .  A
C2775      C2784   1.400       .  A
C2776      H2792   1.110       .  S
C2776      H2793   1.109       .  S
C2776      H2794   1.111       .  S
C2778      H2789   1.110       .  S
C2778      H2790   1.111       .  S
C2778      H2791   1.110       .  S
C2780      C2781   1.404       .  A
C2780      C2785   1.505       .  S
C2781      C2782   1.404       .  A
C2781      H2786   1.084       .  S
C2782      C2783   1.414       .  A
C2783      C2784   1.400       .  A
C2783      C2787   1.509       .  S
C2784      H2788   1.084       .  S
C2785      H2795   1.108       .  S
C2785      H2796   1.110       .  S
C2785      H2797   1.110       .  S
C2787      H2798   1.111       .  S
C2787      H2799   1.111       .  S
C2787      H2800   1.109       .  S
C2801      C2802   1.398       .  A
C2801      C2806   1.399       .  A
C2801      H2811   1.085       .  S
C2802      C2807   1.473       .  S
C2802      C2803   1.409       .  A
C2803      C2804   1.404       .  A
C2803      C2808   1.505       .  S
C2804      C2805   1.405       .  A
C2804      H2809   1.084       .  S
C2805      C2806   1.416       .  A
C2806      C2810   1.509       .  S
C2807      C2812   1.410       .  A
C2807      C2816   1.399       .  A
C2808      H2824   1.110       .  S
C2808      H2825   1.110       .  S
C2808      H2826   1.111       .  S
C2810      H2821   1.109       .  S
C2810      H2822   1.111       .  S
C2810      H2823   1.110       .  S
C2812      C2813   1.401       .  A
C2812      C2817   1.507       .  S
C2813      C2814   1.404       .  A
C2813      H2818   1.085       .  S
C2814      C2815   1.414       .  A
C2815      C2816   1.401       .  A
C2815      C2819   1.504       .  S
C2816      H2820   1.084       .  S
C2817      H2827   1.111       .  S
C2817      H2828   1.110       .  S
C2817      H2829   1.110       .  S
C2819      H2830   1.111       .  S
C2819      H2831   1.110       .  S
C2819      H2832   1.109       .  S
C2833      C2834   1.403       .  A
C2833      C2838   1.408       .  A
C2833      H2843   1.084       .  S
C2834      C2839   1.479       .  S
C2834      C2835   1.408       .  A
C2835      C2836   1.398       .  A
C2835      C2840   1.508       .  S
C2836      C2837   1.405       .  A
C2836      H2841   1.084       .  S
C2837      C2838   1.418       .  A
C2838      C2842   1.508       .  S
C2839      C2844   1.409       .  A
C2839      C2848   1.401       .  A
C2840      H2856   1.110       .  S
C2840      H2857   1.110       .  S
C2840      H2858   1.111       .  S
C2842      H2853   1.110       .  S
C2842      H2854   1.111       .  S
C2842      H2855   1.110       .  S
C2844      C2845   1.403       .  A
C2844      C2849   1.506       .  S
C2845      C2846   1.407       .  A
C2845      H2850   1.084       .  S
C2846      C2847   1.417       .  A
C2847      C2848   1.403       .  A
C2847      C2851   1.509       .  S
C2848      H2852   1.084       .  S
C2849      H2859   1.111       .  S
C2849      H2860   1.110       .  S
C2849      H2861   1.110       .  S
C2851      H2862   1.110       .  S
C2851      H2863   1.110       .  S
C2851      H2864   1.111       .  S
C2865      C2866   1.398       .  A
C2865      C2870   1.404       .  A
C2865      H2875   1.084       .  S
C2866      C2871   1.476       .  S
C2866      C2867   1.409       .  A
C2867      C2868   1.401       .  A
C2867      C2872   1.508       .  S
C2868      C2869   1.407       .  A
C2868      H2873   1.084       .  S
C2869      C2870   1.421       .  A
C2870      C2874   1.509       .  S
C2871      C2876   1.409       .  A
C2871      C2880   1.400       .  A
C2872      H2888   1.110       .  S
C2872      H2889   1.109       .  S
C2872      H2890   1.111       .  S
C2874      H2885   1.111       .  S
C2874      H2886   1.111       .  S
C2874      H2887   1.110       .  S
C2876      C2877   1.402       .  A
C2876      C2881   1.507       .  S
C2877      C2878   1.405       .  A
C2877      H2882   1.084       .  S
C2878      C2879   1.416       .  A
C2879      C2880   1.402       .  A
C2879      C2883   1.508       .  S
C2880      H2884   1.085       .  S
C2881      H2891   1.111       .  S
C2881      H2892   1.110       .  S
C2881      H2893   1.109       .  S
C2883      H2894   1.110       .  S
C2883      H2895   1.105       .  S
C2883      H2896   1.111       .  S
C2897      C2898   1.400       .  A
C2897      C2902   1.401       .  A
C2897      H2907   1.085       .  S
C2898      C2903   1.476       .  S
C2898      C2899   1.409       .  A
C2899      C2900   1.402       .  A
C2899      C2904   1.506       .  S
C2900      C2901   1.403       .  A
C2900      H2905   1.084       .  S
C2901      C2902   1.417       .  A
C2902      C2906   1.508       .  S
C2903      C2908   1.409       .  A
C2903      C2912   1.400       .  A
C2904      H2920   1.110       .  S
C2904      H2921   1.110       .  S
C2904      H2922   1.111       .  S
C2906      H2917   1.110       .  S
C2906      H2918   1.111       .  S
C2906      H2919   1.107       .  S
C2908      C2909   1.398       .  A
C2908      C2913   1.507       .  S
C2909      C2910   1.404       .  A
C2909      H2914   1.082       .  S
C2910      C2911   1.421       .  A
C2911      C2912   1.406       .  A
C2911      C2915   1.509       .  S
C2912      H2916   1.084       .  S
C2913      H2923   1.111       .  S
C2913      H2924   1.110       .  S
C2913      H2925   1.110       .  S
C2915      H2926   1.111       .  S
C2915      H2927   1.111       .  S
C2915      H2928   1.109       .  S
C2929      C2930   1.397       .  A
C2929      C2934   1.398       .  A
C2929      H2939   1.085       .  S
C2930      C2935   1.474       .  S
C2930      C2931   1.410       .  A
C2931      C2932   1.405       .  A
C2931      C2936   1.506       .  S
C2932      C2933   1.405       .  A
C2932      H2937   1.084       .  S
C2933      C2934   1.417       .  A
C2934      C2938   1.509       .  S
C2935      C2940   1.410       .  A
C2935      C2944   1.400       .  A
C2936      H2952   1.110       .  S
C2936      H2953   1.110       .  S
C2936      H2954   1.111       .  S
C2938      H2949   1.109       .  S
C2938      H2950   1.111       .  S
C2938      H2951   1.110       .  S
C2940      C2941   1.398       .  A
C2940      C2945   1.508       .  S
C2941      C2942   1.403       .  A
C2941      H2946   1.085       .  S
C2942      C2943   1.416       .  A
C2943      C2944   1.403       .  A
C2943      C2947   1.509       .  S
C2944      H2948   1.084       .  S
C2945      H2955   1.111       .  S
C2945      H2956   1.110       .  S
C2945      H2957   1.110       .  S
C2947      H2958   1.111       .  S
C2947      H2959   1.111       .  S
C2947      H2960   1.109       .  S
C2961      C2962   1.396       .  A
C2961      C2966   1.400       .  A
C2961      H2971   1.085       .  S
C2962      C2967   1.473       .  S
C2962      C2963   1.409       .  A
C2963      C2964   1.403       .  A
C2963      C2968   1.506       .  S
C2964      C2965   1.404       .  A
C2964      H2969   1.084       .  S
C2965      C2966   1.420       .  A
C2966      C2970   1.508       .  S
C2967      C2972   1.408       .  A
C2967      C2976   1.400       .  A
C2968      H2984   1.110       .  S
C2968      H2985   1.110       .  S
C2968      H2986   1.111       .  S
C2970      H2981   1.111       .  S
C2970      H2982   1.108   1_545  S
C2970      H2983   1.110       .  S
C2972      C2973   1.402       .  A
C2972      C2977   1.505       .  S
C2973      C2974   1.405       .  A
C2973      H2978   1.084       .  S
C2974      C2975   1.416       .  A
C2975      C2976   1.399       .  A
C2975      C2979   1.508       .  S
C2976      H2980   1.085       .  S
C2977      H2987   1.111       .  S
C2977      H2988   1.110       .  S
C2977      H2989   1.110       .  S
C2979      H2990   1.110       .  S
C2979      H2991   1.107       .  S
C2979      H2992   1.111       .  S
C2993      C2994   1.402       .  A
C2993      C2998   1.405       .  A
C2993      H3003   1.084       .  S
C2994      C2999   1.472       .  S
C2994      C2995   1.408       .  A
C2995      C2996   1.395       .  A
C2995      C3000   1.509       .  S
C2996      C2997   1.404       .  A
C2996      H3001   1.082       .  S
C2997      C2998   1.414       .  A
C2998      C3002   1.506       .  S
C2999      C3004   1.408       .  A
C2999      C3008   1.399       .  A
C3000      H3016   1.110       .  S
C3000      H3017   1.109       .  S
C3000      H3018   1.111       .  S
C3002      H3013   1.109       .  S
C3002      H3014   1.111       .  S
C3002      H3015   1.111       .  S
C3004      C3005   1.400       .  A
C3004      C3009   1.507       .  S
C3005      C3006   1.404       .  A
C3005      H3010   1.084       .  S
C3006      C3007   1.418       .  A
C3007      C3008   1.400       .  A
C3007      C3011   1.510       .  S
C3008      H3012   1.084       .  S
C3009      H3019   1.111       .  S
C3009      H3020   1.110       .  S
C3009      H3021   1.109       .  S
C3011      H3022   1.111       .  S
C3011      H3023   1.109       .  S
C3011      H3024   1.111       .  S
C3025      C3026   1.401       .  A
C3025      C3030   1.404       .  A
C3025      H3035   1.085       .  S
C3026      C3031   1.479       .  S
C3026      C3027   1.410       .  A
C3027      C3028   1.402       .  A
C3027      C3032   1.507       .  S
C3028      C3029   1.403       .  A
C3028      H3033   1.084       .  S
C3029      C3030   1.418       .  A
C3030      C3034   1.507       .  S
C3031      C3036   1.407       .  A
C3031      C3040   1.399       .  A
C3032      H3048   1.110       .  S
C3032      H3049   1.109       .  S
C3032      H3050   1.111       .  S
C3034      H3045   1.111       .  S
C3034      H3046   1.110       .  S
C3034      H3047   1.108       .  S
C3036      C3037   1.404       .  A
C3036      C3041   1.506       .  S
C3037      C3038   1.408       .  A
C3037      H3042   1.084       .  S
C3038      C3039   1.421       .  A
C3039      C3040   1.404       .  A
C3039      C3043   1.509       .  S
C3040      H3044   1.084       .  S
C3041      H3051   1.109       .  S
C3041      H3052   1.110       .  S
C3041      H3053   1.110       .  S
C3043      H3054   1.110       .  S
C3043      H3055   1.111       .  S
C3043      H3056   1.111       .  S
C3057      C3058   1.397       .  A
C3057      C3062   1.401       .  A
C3057      H3067   1.085       .  S
C3058      C3063   1.476       .  S
C3058      C3059   1.408       .  A
C3059      C3060   1.404       .  A
C3059      C3064   1.506       .  S
C3060      C3061   1.409       .  A
C3060      H3065   1.084       .  S
C3061      C3062   1.421       .  A
C3062      C3066   1.507       .  S
C3063      C3068   1.411       .  A
C3063      C3072   1.401       .  A
C3064      H3080   1.110       .  S
C3064      H3081   1.109       .  S
C3064      H3082   1.111       .  S
C3066      H3077   1.111       .  S
C3066      H3078   1.110       .  S
C3066      H3079   1.108       .  S
C3068      C3069   1.400       .  A
C3068      C3073   1.507       .  S
C3069      C3070   1.402       .  A
C3069      H3074   1.084       .  S
C3070      C3071   1.415       .  A
C3071      C3072   1.403       .  A
C3071      C3075   1.509       .  S
C3072      H3076   1.084       .  S
C3073      H3083   1.111       .  S
C3073      H3084   1.110       .  S
C3073      H3085   1.109       .  S
C3075      H3086   1.111       .  S
C3075      H3087   1.111       .  S
C3075      H3088   1.109       .  S
C3089      C3090   1.399       .  A
C3089      C3094   1.400       .  A
C3089      H3099   1.085       .  S
C3090      C3095   1.472       .  S
C3090      C3091   1.409       .  A
C3091      C3092   1.399       .  A
C3091      C3096   1.507       .  S
C3092      C3093   1.402       .  A
C3092      H3097   1.085       .  S
C3093      C3094   1.414       .  A
C3094      C3098   1.505       .  S
C3095      C3100   1.407       .  A
C3095      C3104   1.398       .  A
C3096      H3112   1.110       .  S
C3096      H3113   1.110       .  S
C3096      H3114   1.111       .  S
C3098      H3109   1.110       .  S
C3098      H3110   1.110       .  S
C3098      H3111   1.107       .  S
C3100      C3101   1.398       .  A
C3100      C3105   1.508       .  S
C3101      C3102   1.407       .  A
C3101      H3106   1.084       .  S
C3102      C3103   1.423       .  A
C3103      C3104   1.405       .  A
C3103      C3107   1.508       .  S
C3104      H3108   1.084       .  S
C3105      H3115   1.111       .  S
C3105      H3116   1.110       .  S
C3105      H3117   1.110       .  S
C3107      H3118   1.110       .  S
C3107      H3119   1.110       .  S
C3107      H3120   1.111       .  S
C3121      C3122   1.399       .  A
C3121      C3126   1.399       .  A
C3121      H3131   1.084       .  S
C3122      C3127   1.475       .  S
C3122      C3123   1.408       .  A
C3123      C3124   1.404       .  A
C3123      C3128   1.506       .  S
C3124      C3125   1.409       .  A
C3124      H3129   1.084       .  S
C3125      C3126   1.418       .  A
C3126      C3130   1.510       .  S
C3127      C3132   1.408       .  A
C3127      C3136   1.399       .  A
C3128      H3144   1.110       .  S
C3128      H3145   1.110       .  S
C3128      H3146   1.111       .  S
C3130      H3141   1.109       .  S
C3130      H3142   1.111       .  S
C3130      H3143   1.111       .  S
C3132      C3133   1.399       .  A
C3132      C3137   1.508       .  S
C3133      C3134   1.405       .  A
C3133      H3138   1.084       .  S
C3134      C3135   1.420       .  A
C3135      C3136   1.404       .  A
C3135      C3139   1.509       .  S
C3136      H3140   1.085       .  S
C3137      H3147   1.111       .  S
C3137      H3148   1.110       .  S
C3137      H3149   1.110       .  S
C3139      H3150   1.111       .  S
C3139      H3151   1.105       .  S
C3139      H3152   1.110       .  S
C3153      C3154   1.401       .  A
C3153      C3158   1.406       .  A
C3153      H3163   1.084       .  S
C3154      C3159   1.479       .  S
C3154      C3155   1.408       .  A
C3155      C3156   1.399       .  A
C3155      C3160   1.508       .  S
C3156      C3157   1.407       .  A
C3156      H3161   1.084       .  S
C3157      C3158   1.420       .  A
C3158      C3162   1.508       .  S
C3159      C3164   1.410       .  A
C3159      C3168   1.400       .  A
C3160      H3176   1.110       .  S
C3160      H3177   1.110       .  S
C3160      H3178   1.111       .  S
C3162      H3173   1.110       .  S
C3162      H3174   1.111       .  S
C3162      H3175   1.110       .  S
C3164      C3165   1.404       .  A
C3164      C3169   1.506       .  S
C3165      C3166   1.403       .  A
C3165      H3170   1.084       .  S
C3166      C3167   1.417       .  A
C3167      C3168   1.403       .  A
C3167      C3171   1.510       .  S
C3168      H3172   1.084       .  S
C3169      H3179   1.111       .  S
C3169      H3180   1.110       .  S
C3169      H3181   1.111       .  S
C3171      H3182   1.111       .  S
C3171      H3183   1.110       .  S
C3171      H3184   1.109       .  S
C3185      C3186   1.399       .  A
C3185      C3190   1.403       .  A
C3185      H3195   1.085       .  S
C3186      C3191   1.475       .  S
C3186      C3187   1.407       .  A
C3187      C3188   1.399       .  A
C3187      C3192   1.507       .  S
C3188      C3189   1.407       .  A
C3188      H3193   1.084       .  S
C3189      C3190   1.420       .  A
C3190      C3194   1.508       .  S
C3191      C3196   1.411       .  A
C3191      C3200   1.401       .  A
C3192      H3208   1.110       .  S
C3192      H3209   1.110       .  S
C3192      H3210   1.111       .  S
C3194      H3205   1.111       .  S
C3194      H3206   1.110       .  S
C3194      H3207   1.103       .  S
C3196      C3197   1.399       .  A
C3196      C3201   1.507       .  S
C3197      C3198   1.400       .  A
C3197      H3202   1.085       .  S
C3198      C3199   1.414       .  A
C3199      C3200   1.403       .  A
C3199      C3203   1.509       .  S
C3200      H3204   1.084       .  S
C3201      H3211   1.111       .  S
C3201      H3212   1.110       .  S
C3201      H3213   1.110       .  S
C3203      H3214   1.110       .  S
C3203      H3215   1.111       .  S
C3203      H3216   1.111       .  S
C3217      C3218   1.401       .  A
C3217      C3222   1.401       .  A
C3217      H3227   1.085       .  S
C3218      C3223   1.479       .  S
C3218      C3219   1.410       .  A
C3219      C3220   1.402       .  A
C3219      C3224   1.506       .  S
C3220      C3221   1.403       .  A
C3220      H3225   1.084       .  S
C3221      C3222   1.417       .  A
C3222      C3226   1.510       .  S
C3223      C3228   1.408       .  A
C3223      C3232   1.402   1_655  A
C3224      H3240   1.110   1_655  S
C3224      H3241   1.110       .  S
C3224      H3242   1.111       .  S
C3226      H3237   1.110       .  S
C3226      H3238   1.110       .  S
C3226      H3239   1.107       .  S
C3228      C3229   1.398       .  A
C3228      C3233   1.509       .  S
C3229      C3230   1.407   1_655  A
C3229      H3234   1.084       .  S
C3230      C3231   1.420       .  A
C3231      C3232   1.408       .  A
C3231      C3235   1.507       .  S
C3232      H3236   1.084       .  S
C3233      H3243   1.111       .  S
C3233      H3244   1.110       .  S
C3233      H3245   1.110       .  S
C3235      H3246   1.111       .  S
C3235      H3247   1.110       .  S
C3235      H3248   1.110       .  S
C3249      C3250   1.401       .  A
C3249      C3254   1.408       .  A
C3249      H3259   1.084       .  S
C3250      C3255   1.485       .  S
C3250      C3251   1.410       .  A
C3251      C3252   1.403       .  A
C3251      C3256   1.507       .  S
C3252      C3253   1.407       .  A
C3252      H3257   1.084       .  S
C3253      C3254   1.421       .  A
C3254      C3258   1.508       .  S
C3255      C3260   1.411       .  A
C3255      C3264   1.400       .  A
C3256      H3272   1.110       .  S
C3256      H3273   1.110       .  S
C3256      H3274   1.111       .  S
C3258      H3269   1.110       .  S
C3258      H3270   1.111       .  S
C3258      H3271   1.111       .  S
C3260      C3261   1.407   1_655  A
C3260      C3265   1.505   1_655  S
C3261      C3262   1.405       .  A
C3261      H3266   1.084       .  S
C3262      C3263   1.419   1_455  A
C3263      C3264   1.404       .  A
C3263      C3267   1.509       .  S
C3264      H3268   1.084       .  S
C3265      H3275   1.111       .  S
C3265      H3276   1.110       .  S
C3265      H3277   1.110   1_455  S
C3267      H3278   1.111       .  S
C3267      H3279   1.109       .  S
C3267      H3280   1.111       .  S
C3281      C3282   1.399       .  A
C3281      C3286   1.401       .  A
C3281      H3291   1.085       .  S
C3282      C3287   1.481       .  S
C3282      C3283   1.411       .  A
C3283      C3284   1.406       .  A
C3283      C3288   1.506       .  S
C3284      C3285   1.406       .  A
C3284      H3289   1.084       .  S
C3285      C3286   1.417       .  A
C3286      C3290   1.508       .  S
C3287      C3292   1.409       .  A
C3287      C3296   1.400       .  A
C3288      H3304   1.110       .  S
C3288      H3305   1.110       .  S
C3288      H3306   1.111       .  S
C3290      H3301   1.110       .  S
C3290      H3302   1.111       .  S
C3290      H3303   1.107       .  S
C3292      C3293   1.402       .  A
C3292      C3297   1.507       .  S
C3293      C3294   1.407       .  A
C3293      H3298   1.084       .  S
C3294      C3295   1.421       .  A
C3295      C3296   1.407       .  A
C3295      C3299   1.509       .  S
C3296      H3300   1.084       .  S
C3297      H3307   1.110       .  S
C3297      H3308   1.110       .  S
C3297      H3309   1.110       .  S
C3299      H3310   1.111       .  S
C3299      H3311   1.111       .  S
C3299      H3312   1.109       .  S
C3313      C3314   1.400       .  A
C3313      C3318   1.407       .  A
C3313      H3323   1.084       .  S
C3314      C3319   1.479       .  S
C3314      C3315   1.409       .  A
C3315      C3316   1.400       .  A
C3315      C3320   1.507       .  S
C3316      C3317   1.406       .  A
C3316      H3321   1.084       .  S
C3317      C3318   1.420       .  A
C3318      C3322   1.508       .  S
C3319      C3324   1.410       .  A
C3319      C3328   1.401       .  A
C3320      H3336   1.110       .  S
C3320      H3337   1.110       .  S
C3320      H3338   1.111       .  S
C3322      H3333   1.110       .  S
C3322      H3334   1.111       .  S
C3322      H3335   1.110       .  S
C3324      C3325   1.403       .  A
C3324      C3329   1.506       .  S
C3325      C3326   1.403       .  A
C3325      H3330   1.084       .  S
C3326      C3327   1.417       .  A
C3327      C3328   1.402       .  A
C3327      C3331   1.510       .  S
C3328      H3332   1.085       .  S
C3329      H3339   1.111       .  S
C3329      H3340   1.110       .  S
C3329      H3341   1.110       .  S
C3331      H3342   1.111       .  S
C3331      H3343   1.107       .  S
C3331      H3344   1.110       .  S
C3345      C3346   1.398       .  A
C3345      C3350   1.400       .  A
C3345      H3355   1.085       .  S
C3346      C3351   1.473       .  S
C3346      C3347   1.407       .  A
C3347      C3348   1.403       .  A
C3347      C3352   1.506       .  S
C3348      C3349   1.409       .  A
C3348      H3353   1.084       .  S
C3349      C3350   1.418       .  A
C3350      C3354   1.505       .  S
C3351      C3356   1.409       .  A
C3351      C3360   1.397       .  A
C3352      H3368   1.110       .  S
C3352      H3369   1.110       .  S
C3352      H3370   1.111       .  S
C3354      H3365   1.110       .  S
C3354      H3366   1.111       .  S
C3354      H3367   1.108       .  S
C3356      C3357   1.404       .  A
C3356      C3361   1.505       .  S
C3357      C3358   1.404       .  A
C3357      H3362   1.084       .  S
C3358      C3359   1.413       .  A
C3359      C3360   1.397       .  A
C3359      C3363   1.505       .  S
C3360      H3364   1.085       .  S
C3361      H3371   1.108       .  S
C3361      H3372   1.110       .  S
C3361      H3373   1.110       .  S
C3363      H3374   1.109       .  S
C3363      H3375   1.108       .  S
C3363      H3376   1.110       .  S
C3377      C3378   1.399       .  A
C3377      C3382   1.401       .  A
C3377      H3387   1.085       .  S
C3378      C3383   1.475       .  S
C3378      C3379   1.408       .  A
C3379      C3380   1.403       .  A
C3379      C3384   1.506       .  S
C3380      C3381   1.405       .  A
C3380      H3385   1.084       .  S
C3381      C3382   1.417       .  A
C3382      C3386   1.506       .  S
C3383      C3388   1.409       .  A
C3383      C3392   1.400       .  A
C3384      H3400   1.110       .  S
C3384      H3401   1.110       .  S
C3384      H3402   1.111       .  S
C3386      H3397   1.110       .  S
C3386      H3398   1.110       .  S
C3386      H3399   1.106       .  S
C3388      C3389   1.399       .  A
C3388      C3393   1.507       .  S
C3389      C3390   1.403       .  A
C3389      H3394   1.084       .  S
C3390      C3391   1.419       .  A
C3391      C3392   1.404       .  A
C3391      C3395   1.509       .  S
C3392      H3396   1.084       .  S
C3393      H3403   1.111       .  S
C3393      H3404   1.110       .  S
C3393      H3405   1.110       .  S
C3395      H3406   1.111       .  S
C3395      H3407   1.110       .  S
C3395      H3408   1.110       .  S
C3409      C3410   1.399       .  A
C3409      C3414   1.401       .  A
C3409      H3419   1.084       .  S
C3410      C3415   1.479       .  S
C3410      C3411   1.410       .  A
C3411      C3412   1.407       .  A
C3411      C3416   1.506       .  S
C3412      C3413   1.406       .  A
C3412      H3417   1.084       .  S
C3413      C3414   1.415       .  A
C3414      C3418   1.508       .  S
C3415      C3420   1.410       .  A
C3415      C3424   1.400       .  A
C3416      H3432   1.110       .  S
C3416      H3433   1.110       .  S
C3416      H3434   1.111       .  S
C3418      H3429   1.111       .  S
C3418      H3430   1.109       .  S
C3418      H3431   1.110       .  S
C3420      C3421   1.403       .  A
C3420      C3425   1.506       .  S
C3421      C3422   1.405       .  A
C3421      H3426   1.084       .  S
C3422      C3423   1.418       .  A
C3423      C3424   1.404       .  A
C3423      C3427   1.509       .  S
C3424      H3428   1.084       .  S
C3425      H3435   1.111       .  S
C3425      H3436   1.110       .  S
C3425      H3437   1.110       .  S
C3427      H3438   1.109       .  S
C3427      H3439   1.109       .  S
C3427      H3440   1.111       .  S
C3441      C3442   1.400       .  A
C3441      C3446   1.402       .  A
C3441      H3451   1.085       .  S
C3442      C3447   1.482       .  S
C3442      C3443   1.411       .  A
C3443      C3444   1.406       .  A
C3443      C3448   1.506       .  S
C3444      C3445   1.406       .  A
C3444      H3449   1.084       .  S
C3445      C3446   1.418       .  A
C3446      C3450   1.508       .  S
C3447      C3452   1.411       .  A
C3447      C3456   1.401       .  A
C3448      H3464   1.110       .  S
C3448      H3465   1.111       .  S
C3448      H3466   1.111       .  S
C3450      H3461   1.111       .  S
C3450      H3462   1.110       .  S
C3450      H3463   1.107       .  S
C3452      C3453   1.405       .  A
C3452      C3457   1.506       .  S
C3453      C3454   1.404       .  A
C3453      H3458   1.084       .  S
C3454      C3455   1.417       .  A
C3455      C3456   1.402       .  A
C3455      C3459   1.510       .  S
C3456      H3460   1.085       .  S
C3457      H3467   1.111       .  S
C3457      H3468   1.110       .  S
C3457      H3469   1.110       .  S
C3459      H3470   1.110       .  S
C3459      H3471   1.107       .  S
C3459      H3472   1.111       .  S
C3473      C3474   1.400       .  A
C3473      C3478   1.404       .  A
C3473      H3483   1.084       .  S
C3474      C3479   1.475       .  S
C3474      C3475   1.410       .  A
C3475      C3476   1.401       .  A
C3475      C3480   1.507       .  S
C3476      C3477   1.403       .  A
C3476      H3481   1.084       .  S
C3477      C3478   1.416       .  A
C3478      C3482   1.508       .  S
C3479      C3484   1.409       .  A
C3479      C3488   1.399       .  A
C3480      H3496   1.110       .  S
C3480      H3497   1.110       .  S
C3480      H3498   1.111       .  S
C3482      H3493   1.111       .  S
C3482      H3494   1.109       .  S
C3482      H3495   1.109       .  S
C3484      C3485   1.400       .  A
C3484      C3489   1.508       .  S
C3485      C3486   1.405       .  A
C3485      H3490   1.084       .  S
C3486      C3487   1.420       .  A
C3487      C3488   1.403       .  A
C3487      C3491   1.509       .  S
C3488      H3492   1.085       .  S
C3489      H3499   1.111       .  S
C3489      H3500   1.110       .  S
C3489      H3501   1.110       .  S
C3491      H3502   1.110       .  S
C3491      H3503   1.105       .  S
C3491      H3504   1.111       .  S
C3505      C3506   1.401       .  A
C3505      C3510   1.400       .  A
C3505      H3515   1.085       .  S
C3506      C3511   1.476       .  S
C3506      C3507   1.409       .  A
C3507      C3508   1.401       .  A
C3507      C3512   1.506       .  S
C3508      C3509   1.402       .  A
C3508      H3513   1.084       .  S
C3509      C3510   1.416       .  A
C3510      C3514   1.509       .  S
C3511      C3516   1.407       .  A
C3511      C3520   1.399       .  A
C3512      H3528   1.110       .  S
C3512      H3529   1.110       .  S
C3512      H3530   1.111       .  S
C3514      H3525   1.110       .  S
C3514      H3526   1.110       .  S
C3514      H3527   1.107       .  S
C3516      C3517   1.401       .  A
C3516      C3521   1.507       .  S
C3517      C3518   1.408       .  A
C3517      H3522   1.084       .  S
C3518      C3519   1.421       .  A
C3519      C3520   1.404       .  A
C3519      C3523   1.508       .  S
C3520      H3524   1.084       .  S
C3521      H3531   1.111       .  S
C3521      H3532   1.110       .  S
C3521      H3533   1.110       .  S
C3523      H3534   1.111       .  S
C3523      H3535   1.110       .  S
C3523      H3536   1.110       .  S
C3537      C3538   1.400       .  A
C3537      C3542   1.401       .  A
C3537      H3547   1.084       .  S
C3538      C3543   1.475       .  S
C3538      C3539   1.409       .  A
C3539      C3540   1.404       .  A
C3539      C3544   1.506       .  S
C3540      C3541   1.405       .  A
C3540      H3545   1.084       .  S
C3541      C3542   1.412       .  A
C3542      C3546   1.507       .  S
C3543      C3548   1.408       .  A
C3543      C3552   1.400       .  A
C3544      H3560   1.110       .  S
C3544      H3561   1.111       .  S
C3544      H3562   1.111       .  S
C3546      H3557   1.111       .  S
C3546      H3558   1.108       .  S
C3546      H3559   1.111       .  S
C3548      C3549   1.401       .  A
C3548      C3553   1.506       .  S
C3549      C3550   1.406       .  A
C3549      H3554   1.084       .  S
C3550      C3551   1.418       .  A
C3551      C3552   1.400       .  A
C3551      C3555   1.510       .  S
C3552      H3556   1.085       .  S
C3553      H3563   1.111       .  S
C3553      H3564   1.110       .  S
C3553      H3565   1.110       .  S
C3555      H3566   1.110       .  S
C3555      H3567   1.106       .  S
C3555      H3568   1.111       .  S
C3569      C3570   1.402       .  A
C3569      C3574   1.402       .  A
C3569      H3579   1.085       .  S
C3570      C3575   1.480       .  S
C3570      C3571   1.409       .  A
C3571      C3572   1.403       .  A
C3571      C3576   1.506       .  S
C3572      C3573   1.406       .  A
C3572      H3577   1.084       .  S
C3573      C3574   1.415       .  A
C3574      C3578   1.509       .  S
C3575      C3580   1.409       .  A
C3575      C3584   1.398       .  A
C3576      H3592   1.110       .  S
C3576      H3593   1.110       .  S
C3576      H3594   1.111       .  S
C3578      H3589   1.110       .  S
C3578      H3590   1.111       .  S
C3578      H3591   1.107       .  S
C3580      C3581   1.404       .  A
C3580      C3585   1.507       .  S
C3581      C3582   1.407       .  A
C3581      H3586   1.084       .  S
C3582      C3583   1.422       .  A
C3583      C3584   1.405       .  A
C3583      C3587   1.508       .  S
C3584      H3588   1.084       .  S
C3585      H3595   1.110       .  S
C3585      H3596   1.110       .  S
C3585      H3597   1.111       .  S
C3587      H3598   1.110       .  S
C3587      H3599   1.110       .  S
C3587      H3600   1.111       .  S
C3601      C3602   1.397       .  A
C3601      C3606   1.396       .  A
C3601      H3611   1.085       .  S
C3602      C3607   1.470       .  S
C3602      C3603   1.408   1_655  A
C3603      C3604   1.402       .  A
C3603      C3608   1.506       .  S
C3604      C3605   1.405       .  A
C3604      H3609   1.084       .  S
C3605      C3606   1.414   1_455  A
C3606      C3610   1.506       .  S
C3607      C3612   1.408       .  A
C3607      C3616   1.399       .  A
C3608      H3624   1.110   1_455  S
C3608      H3625   1.110       .  S
C3608      H3626   1.111       .  S
C3610      H3621   1.110       .  S
C3610      H3622   1.110       .  S
C3610      H3623   1.107       .  S
C3612      C3613   1.401       .  A
C3612      C3617   1.506       .  S
C3613      C3614   1.404       .  A
C3613      H3618   1.084       .  S
C3614      C3615   1.415       .  A
C3615      C3616   1.398       .  A
C3615      C3619   1.509       .  S
C3616      H3620   1.084       .  S
C3617      H3627   1.110       .  S
C3617      H3628   1.110       .  S
C3617      H3629   1.110   1_655  S
C3619      H3630   1.109       .  S
C3619      H3631   1.111       .  S
C3619      H3632   1.111       .  S
C3633      C3634   1.395       .  A
C3633      C3638   1.401       .  A
C3633      H3643   1.085       .  S
C3634      C3639   1.476       .  S
C3634      C3635   1.406       .  A
C3635      C3636   1.403   1_655  A
C3635      C3640   1.506   1_655  S
C3636      C3637   1.410       .  A
C3636      H3641   1.083       .  S
C3637      C3638   1.426   1_455  A
C3638      C3642   1.507       .  S
C3639      C3644   1.410       .  A
C3639      C3648   1.399       .  A
C3640      H3656   1.110       .  S
C3640      H3657   1.110       .  S
C3640      H3658   1.110       .  S
C3642      H3653   1.111       .  S
C3642      H3654   1.108       .  S
C3642      H3655   1.109       .  S
C3644      C3645   1.401       .  A
C3644      C3649   1.507       .  S
C3645      C3646   1.403       .  A
C3645      H3650   1.085       .  S
C3646      C3647   1.418       .  A
C3647      C3648   1.401       .  A
C3647      C3651   1.509       .  S
C3648      H3652   1.085       .  S
C3649      H3659   1.111       .  S
C3649      H3660   1.110       .  S
C3649      H3661   1.110       .  S
C3651      H3662   1.111       .  S
C3651      H3663   1.104       .  S
C3651      H3664   1.111       .  S
C3665      C3666   1.400       .  A
C3665      C3670   1.402       .  A
C3665      H3675   1.085       .  S
C3666      C3671   1.484       .  S
C3666      C3667   1.412       .  A
C3667      C3668   1.406       .  A
C3667      C3672   1.506       .  S
C3668      C3669   1.404       .  A
C3668      H3673   1.084       .  S
C3669      C3670   1.417       .  A
C3670      C3674   1.506       .  S
C3671      C3676   1.411       .  A
C3671      C3680   1.403       .  A
C3672      H3688   1.109       .  S
C3672      H3689   1.110       .  S
C3672      H3690   1.111       .  S
C3674      H3685   1.111       .  S
C3674      H3686   1.110       .  S
C3674      H3687   1.107       .  S
C3676      C3677   1.404       .  A
C3676      C3681   1.506       .  S
C3677      C3678   1.405       .  A
C3677      H3682   1.084       .  S
C3678      C3679   1.417       .  A
C3679      C3680   1.405       .  A
C3679      C3683   1.509       .  S
C3680      H3684   1.084       .  S
C3681      H3691   1.111       .  S
C3681      H3692   1.109       .  S
C3681      H3693   1.110       .  S
C3683      H3694   1.109       .  S
C3683      H3695   1.111       .  S
C3683      H3696   1.111       .  S
C3697      C3698   1.397       .  A
C3697      C3702   1.403       .  A
C3697      H3707   1.084       .  S
C3698      C3703   1.481       .  S
C3698      C3699   1.409       .  A
C3699      C3700   1.406       .  A
C3699      C3704   1.506       .  S
C3700      C3701   1.408       .  A
C3700      H3705   1.084       .  S
C3701      C3702   1.421       .  A
C3702      C3706   1.505       .  S
C3703      C3708   1.411       .  A
C3703      C3712   1.402       .  A
C3704      H3720   1.110       .  S
C3704      H3721   1.110       .  S
C3704      H3722   1.111       .  S
C3706      H3717   1.108       .  S
C3706      H3718   1.111       .  S
C3706      H3719   1.110       .  S
C3708      C3709   1.401       .  A
C3708      C3713   1.507       .  S
C3709      C3710   1.404       .  A
C3709      H3714   1.084       .  S
C3710      C3711   1.416       .  A
C3711      C3712   1.407       .  A
C3711      C3715   1.509       .  S
C3712      H3716   1.084       .  S
C3713      H3723   1.111       .  S
C3713      H3724   1.110       .  S
C3713      H3725   1.109       .  S
C3715      H3726   1.111       .  S
C3715      H3727   1.111       .  S
C3715      H3728   1.109       .  S
C3729      C3730   1.400       .  A
C3729      C3734   1.405       .  A
C3729      H3739   1.084       .  S
C3730      C3735   1.482       .  S
C3730      C3731   1.410       .  A
C3731      C3732   1.405       .  A
C3731      C3736   1.506       .  S
C3732      C3733   1.404       .  A
C3732      H3737   1.084       .  S
C3733      C3734   1.419       .  A
C3734      C3738   1.508       .  S
C3735      C3740   1.410       .  A
C3735      C3744   1.401       .  A
C3736      H3752   1.110       .  S
C3736      H3753   1.110       .  S
C3736      H3754   1.111       .  S
C3738      H3749   1.111       .  S
C3738      H3750   1.109       .  S
C3738      H3751   1.110       .  S
C3740      C3741   1.404       .  A
C3740      C3745   1.506       .  S
C3741      C3742   1.402       .  A
C3741      H3746   1.079       .  S
C3742      C3743   1.418       .  A
C3743      C3744   1.405       .  A
C3743      C3747   1.509       .  S
C3744      H3748   1.084       .  S
C3745      H3755   1.110       .  S
C3745      H3756   1.110       .  S
C3745      H3757   1.110       .  S
C3747      H3758   1.111       .  S
C3747      H3759   1.109       .  S
C3747      H3760   1.111       .  S
C3761      C3762   1.398       .  A
C3761      C3766   1.401       .  A
C3761      H3771   1.084       .  S
C3762      C3767   1.479       .  S
C3762      C3763   1.408       .  A
C3763      C3764   1.405       .  A
C3763      C3768   1.506       .  S
C3764      C3765   1.408       .  A
C3764      H3769   1.084       .  S
C3765      C3766   1.422       .  A
C3766      C3770   1.511       .  S
C3767      C3772   1.410       .  A
C3767      C3776   1.402       .  A
C3768      H3784   1.110       .  S
C3768      H3785   1.110       .  S
C3768      H3786   1.111       .  S
C3770      H3781   1.110       .  S
C3770      H3782   1.111       .  S
C3770      H3783   1.111       .  S
C3772      C3773   1.399       .  A
C3772      C3777   1.508       .  S
C3773      C3774   1.403       .  A
C3773      H3778   1.084       .  S
C3774      C3775   1.416       .  A
C3775      C3776   1.406       .  A
C3775      C3779   1.507       .  S
C3776      H3780   1.084       .  S
C3777      H3787   1.111       .  S
C3777      H3788   1.110       .  S
C3777      H3789   1.110       .  S
C3779      H3790   1.111       .  S
C3779      H3791   1.110       .  S
C3779      H3792   1.110       .  S
