geometry optimzed in LAMMPS
_audit_creation_date              2020-11-30 
_audit_creation_method            'lammps2cif' 
_symmetry_space_group_name_H-M    'P1' 
_symmetry_Int_Tables_number       1 
_symmetry_cell_setting            triclinic 
loop_ 
_symmetry_equiv_pos_as_xyz 
  x,y,z 
_cell_length_a                    31.3885547 
_cell_length_b                    31.64718117133615 
_cell_length_c                    21.22967389843032 
_cell_angle_alpha                 95.80173584961528 
_cell_angle_beta                  85.50138615670313 
_cell_angle_gamma                 119.06210866538946 
loop_ 
_atom_site_label 
_atom_site_type_symbol 
_atom_site_fract_x 
_atom_site_fract_y 
_atom_site_fract_z 
_atom_site_charge 
C1          C  0.64896331  0.33735693  0.98626910     0.30300
C2          C  0.64869796  0.33633070  0.33142179     0.30300
C3          C  0.68102285  0.32150408  0.93799449    -0.05900
C4          C  0.59901636  0.30739669  0.94488179    -0.06700
C5          C  0.66628550  0.38623159  0.94911134    -0.06500
C6          C  0.67701997  0.31595839  0.36586887    -0.05900
C7          C  0.60027675  0.30770285  0.37585305    -0.06700
C8          C  0.66687704  0.38506150  0.37743302    -0.06500
C9          C  0.67675786  0.27296930  0.34831475    -0.31900
N10         N  0.69329334  0.26002097  0.39498889     0.14600
C11         C  0.69745598  0.29085300  0.94987582    -0.31900
H12         H  0.71744279  0.29430070  0.99034499     0.16500
C13         C  0.55132043  0.28464124  0.36205354    -0.30900
N14         N  0.52250098  0.27164645  0.41557452     0.13300
C15         C  0.54894043  0.28346414  0.96183589    -0.30900
C16         C  0.67930442  0.43146578  0.36409245    -0.31200
N17         N  0.68883762  0.46133572  0.91877756     0.13800
H18         H  0.67916483  0.44297044  0.31792859     0.16400
C19         C  0.68029499  0.43437074  0.96938282    -0.31200
H20         H  0.68316568  0.44874869  0.01795418     0.16400
H21         H  0.53380804  0.27564081  0.00930324     0.16400
H22         H  0.65881829  0.24860729  0.30809951     0.16500
H23         H  0.53735170  0.27910956  0.31576805     0.16400
C24         C  0.65262021  0.33595915  0.23625696     0.30300
C25         C  0.65145574  0.33347988  0.08088150     0.30300
C26         C  0.65965630  0.29583328  0.18962323    -0.05900
C27         C  0.60997926  0.33462183  0.19878369    -0.06700
C28         C  0.69311703  0.37802080  0.19506773    -0.06500
C29         C  0.65600535  0.29182737  0.11808273    -0.05900
C30         C  0.60940255  0.33362738  0.12806758    -0.06700
C31         C  0.69277409  0.37655234  0.12361355    -0.06500
C32         C  0.67745065  0.26206223  0.09790365    -0.31900
N33         N  0.69988495  0.25532163  0.14554663     0.14600
C34         C  0.69170567  0.27810245  0.19862138    -0.31900
H35         H  0.71400302  0.28771639  0.23901012     0.16500
C36         C  0.57079237  0.34044816  0.11676530    -0.30900
N37         N  0.54783184  0.34376221  0.17224464     0.13300
C38         C  0.57269418  0.34341056  0.22130056    -0.30900
C39         C  0.72977511  0.42058292  0.10785581    -0.31200
N40         N  0.75022365  0.44835254  0.16134265     0.13800
H41         H  0.73861481  0.43349028  0.06092015     0.16400
C42         C  0.73003208  0.42295625  0.21313742    -0.31200
H43         H  0.73959085  0.43774961  0.26105495     0.16400
H44         H  0.56289769  0.34777823  0.27048009     0.16400
H45         H  0.67529804  0.24432549  0.05187649     0.16500
H46         H  0.55954206  0.34263616  0.07108476     0.16400
C47         C  0.08094579  0.93259452  0.35876989     0.42800
N48         N  0.02015297  0.94810695  0.35943262     0.01700
C49         C  0.03150803  0.16413569  0.27230715    -0.06200
H50         H  0.11049424  0.20149052  0.39471435     0.07100
C51         C  0.88230378  0.00997706  0.48761188    -0.06600
Co52       Co  0.05800882  0.05028814  0.31462553     0.74200
N53         N  0.06147439  0.12430267  0.39576393    -0.25800
Co54       Co  0.98360399  0.09778426  0.35961352     0.74100
C55         C  0.91415681  0.04525320  0.01681063     0.42900
N56         N  0.87369523  0.91073571  0.38594805     0.01300
N57         N  0.93302440  0.06953880  0.43377863     0.01400
N58         N  0.09887587  0.15736774  0.25883400    -0.46600
H59         H  0.13511403  0.01406059  0.35386508     0.07100
N60         N  0.07538952  0.09122650  0.38941715     0.01700
N61         N  0.91522779  0.07697661  0.32155596     0.01400
C62         C  0.84336995  0.07178464  0.32708692     0.43000
N63         N  0.91194446  0.90412475  0.37895847    -0.25200
C64         C  0.09167022  0.00873377  0.23012959    -0.06100
N65         N  0.03205447  0.91330763  0.35985742    -0.46300
N66         N  0.89110105  0.10119803  0.33832452    -0.46500
C67         C  0.08240560  0.96165515  0.20234800     0.42800
N68         N  0.06041516  0.11344005  0.26952830     0.01600
N69         N  0.89577074  0.91233202  0.25338410    -0.25200
N70         N  0.05893268  0.99189150  0.35925755    -0.25700
N71         N  0.87518283  0.94006216  0.26297824     0.01300
H72         H  0.85692833  0.83470271  0.23949571     0.07200
H73         H  0.80697398  0.99117521  0.30928562     0.07200
N74         N  0.02152930  0.11922040  0.28004060    -0.25800
N75         N  0.89634188  0.02376239  0.42930164    -0.25400
N76         N  0.01571276  0.95933984  0.24273371     0.01700
C77         C  0.14914891  0.15315048  0.39213215     0.43000
C78         C  0.89900929  0.85777787  0.38021927    -0.06600
N79         N  0.88393132  0.03134980  0.30580659    -0.25400
H80         H  0.86376094  0.97241357  0.49733301     0.07200
N81         N  0.12222211  0.10581546  0.39015857    -0.46600
H82         H  0.92309249  0.84448564  0.36006351     0.07200
C83         C  0.81579342  0.87471778  0.22124954     0.42900
C84         C  0.09852981  0.98552299  0.36120883    -0.06100
Co85       Co  0.96015302  0.93267477  0.30847160     0.73800
N86         N  0.83294388  0.86702645  0.38835677    -0.46300
C87         C  0.08223232  0.19052554  0.25867571     0.43200
N88         N  0.03895447  0.93355460  0.23147242    -0.46300
Co89       Co  0.88332386  0.97685151  0.34716179     0.73900
C90         C  0.83919168  0.02583584  0.30372998    -0.06600
C91         C  0.10682609  0.16619598  0.39668744    -0.06200
N92         N  0.04788192  0.00597909  0.24170394    -0.25700
N93         N  0.94255662  0.08651755  0.49279999    -0.46500
H94         H  0.01295899  0.18072484  0.30068007     0.07200
C95         C  0.85862580  0.86838564  0.23203383    -0.06600
Cl96       Cl  0.97113661  0.01464359  0.33373501    -0.49600
C97         C  0.84639721  0.83102399  0.38502886     0.42900
H98         H  0.12628908  0.04026888  0.24105829     0.07100
N99         N  0.83091708  0.92059319  0.24231522    -0.46300
C100        C  0.11000448  0.93168344  0.99642838     0.42800
N101        N  0.04397756  0.93853434  0.99347042     0.01700
C102        C  0.07680579  0.16971846  0.10068417    -0.06200
H103        H  0.16050183  0.14011088  0.21772345     0.07100
C104        C  0.02955971  0.93301649  0.11694696    -0.06600
Co105      Co  0.07934425  0.04954332  0.01588525     0.74200
N106        N  0.12143685  0.09460319  0.13923684    -0.25800
Co107      Co  0.04623995  0.07420761  0.16024998     0.74100
C108        C  0.07927286  0.96205481  0.13326686     0.42900
N109        N  0.92892722  0.87496888  0.12897164     0.01300
N110        N  0.04597470  0.00742205  0.11457504     0.01400
N111        N  0.11232911  0.15677468  0.01279252    -0.46600
H112        H  0.15588462  0.01173862  0.01533334     0.07100
N113        N  0.13567277  0.08522085  0.08128762     0.01700
N114        N  0.97035834  0.05986132  0.17001503     0.01400
C115        C  0.90808001  0.07610395  0.16848738     0.43000
N116        N  0.94634509  0.86824052  0.07232069    -0.25200
C117        C  0.00881970  0.05695352  0.48954443    -0.06100
N118        N  0.06026980  0.90662525  0.99551405    -0.46300
N119        N  0.95765575  0.09502072  0.16986407    -0.46500
C120        C  0.95981831  0.02703082  0.50855210     0.42800
N121        N  0.08281391  0.11568619  0.03860271     0.01600
N122        N  0.89311958  0.90417526  0.03346684    -0.25200
N123        N  0.08119805  0.98361695  0.99455165    -0.25700
N124        N  0.88354260  0.92524591  0.08416309     0.01300
H125        H  0.85696445  0.83480333  0.49813469     0.07200
H126        H  0.85529192  0.99336491  0.16298774     0.07200
N127        N  0.06201555  0.12207476  0.09143612    -0.25800
N128        N  0.00931143  0.96323878  0.11757421    -0.25400
N129        N  0.99135230  0.98375143  0.46491293     0.01700
C130        C  0.20194135  0.13689891  0.12558999     0.43000
C131        C  0.95052276  0.82818425  0.06819946    -0.06600
N132        N  0.93173068  0.01584512  0.16914534    -0.25400
H133        H  0.01193187  0.89738089  0.13258433     0.07200
N134        N  0.18337821  0.11053719  0.07086956    -0.46600
H135        H  0.97001799  0.81968729  0.02979443     0.07200
C136        C  0.81237603  0.87595768  0.04856020     0.42900
C137        C  0.12272766  0.98181506  0.99693653    -0.06100
Co138      Co  0.96834203  0.92298575  0.01267490     0.73800
N139        N  0.92130967  0.83942639  0.16472513    -0.46300
C140        C  0.10828666  0.19241225  0.04699069     0.43200
N141        N  0.95021565  0.98466940  0.47750518    -0.46300
Co142      Co  0.93786345  0.94910442  0.14726357     0.73900
C143        C  0.89188949  0.02267822  0.16698040    -0.06600
C144        C  0.16107032  0.12509431  0.17084106    -0.06200
N145        N  0.02893361  0.02827312  0.47213839    -0.25700
N146        N  0.08760725  0.00453644  0.11458050    -0.46500
H147        H  0.08098807  0.18771560  0.14585829     0.07200
C148        C  0.85014794  0.86864510  0.01304246    -0.06600
Cl149      Cl  0.00708361  0.00216770  0.08687033    -0.49600
C150        C  0.93300255  0.80754372  0.12913556     0.42900
H151        H  0.02589696  0.09543144  0.49725646     0.07100
N152        N  0.83617500  0.91013896  0.09514760    -0.46300
C153        C  0.32486472  0.67359263  0.19377075     0.30300
C154        C  0.32581298  0.67381862  0.34874455     0.30300
C155        C  0.31865338  0.71329289  0.24301638    -0.05900
C156        C  0.28622962  0.62880661  0.23421887    -0.06700
C157        C  0.36975006  0.67811439  0.23112661    -0.06500
C158        C  0.31482302  0.71037777  0.31424764    -0.05900
C159        C  0.28755238  0.62889214  0.30520615    -0.06700
C160        C  0.37105932  0.68193128  0.30206578    -0.06500
C161        C  0.28211847  0.72714831  0.33335301    -0.31900
N162        N  0.27493127  0.74829782  0.28618480     0.14600
C163        C  0.29859693  0.74225499  0.23305470    -0.31900
H164        H  0.30230592  0.75939845  0.19059378     0.16500
C165        C  0.25223390  0.58373094  0.32077221    -0.30900
N166        N  0.23101457  0.55613750  0.26759776     0.13300
C167        C  0.24968468  0.58299317  0.21624273    -0.30900
C168        C  0.41975093  0.70612460  0.31372551    -0.31200
N169        N  0.44601748  0.70566400  0.26092862     0.13800
H170        H  0.43586947  0.73178263  0.35290648     0.16400
C171        C  0.41634170  0.68861251  0.21104125    -0.31200
H172        H  0.42833670  0.68546920  0.16338629     0.16400
H173        H  0.23938984  0.56881572  0.16829053     0.16400
H174        H  0.25968963  0.71904553  0.37595772     0.16500
H175        H  0.24400775  0.57061297  0.36758125     0.16400
C176        C  0.32944515  0.67322975  0.44297932     0.30300
C177        C  0.32822714  0.67368863  0.59792615     0.30300
C178        C  0.29781892  0.68980869  0.48999304    -0.05900
C179        C  0.31691135  0.62645546  0.47940453    -0.06700
C180        C  0.37736086  0.70516706  0.48376536    -0.06500
C181        C  0.29218585  0.68456480  0.56062441    -0.05900
C182        C  0.31798773  0.62720247  0.55044417    -0.06700
C183        C  0.37657071  0.70867567  0.55565244    -0.06500
C184        C  0.27257467  0.71366219  0.58325368    -0.31900
N185        N  0.27766069  0.74343848  0.53909361     0.14600
C186        C  0.29502139  0.73119149  0.48484242    -0.31900
H187        H  0.31128330  0.75526986  0.44725908     0.16500
C188        C  0.31278743  0.58303755  0.56143351    -0.30900
N189        N  0.30582914  0.55548003  0.50595852     0.13300
C190        C  0.30979708  0.58137854  0.45671469    -0.30900
C191        C  0.42548393  0.73115903  0.56995335    -0.31200
N192        N  0.45357860  0.73406037  0.51686284     0.13800
H193        H  0.43966479  0.74284009  0.61626730     0.16400
C194        C  0.42419568  0.71401039  0.46747464    -0.31200
H195        H  0.43392315  0.69653116  0.42752064     0.16400
H196        H  0.30697134  0.56770800  0.40762278     0.16400
H197        H  0.25107013  0.70956104  0.62615100     0.16500
H198        H  0.31224027  0.57063579  0.60720380     0.16400
C199        C  0.13659550  0.24483789  0.03538013     0.01600
C200        C  0.18785208  0.26914971  0.03304599     0.04500
C201        C  0.21409569  0.31993406  0.03527204    -0.11600
C202        C  0.20974032  0.34809370  0.50952974     0.23800
C203        C  0.16005382  0.31977476  0.49246323    -0.12200
C204        C  0.13343632  0.27055390  0.50552684     0.05200
C205        C  0.23637616  0.40209754  0.50652654     0.27600
C206        C  0.21543141  0.42945398  0.53775851    -0.12900
C207        C  0.23585005  0.47875362  0.53047242     0.05700
C208        C  0.28252789  0.50376073  0.50275784    -0.08800
C209        C  0.30590689  0.47821312  0.47404593     0.06500
C210        C  0.28233453  0.42714314  0.47358887    -0.13200
Br211      Br  0.12692844  0.34720777  0.45238341    -0.05300
Br212      Br  0.22347327  0.23401859  0.02048922     0.00400
Br213      Br  0.19800901  0.51155377  0.55407355     0.00800
Br214      Br  0.31399855  0.39348849  0.42669396    -0.03600
Br215      Br  0.06484949  0.23372520  0.48734570     0.00900
Br216      Br  0.28000819  0.35066541  0.06485184    -0.02900
Br217      Br  0.15009418  0.41129949  0.10828911    -0.03700
Br218      Br  0.36994139  0.51377590  0.43550404     0.00200
C219        C  0.50465999  0.74693734  0.51344489     0.01600
C220        C  0.52072995  0.72011922  0.54337836     0.04500
C221        C  0.57106641  0.73692032  0.54855046    -0.11600
C222        C  0.60655613  0.77705214  0.51504820     0.23800
C223        C  0.58801684  0.79469632  0.47190085    -0.12200
C224        C  0.53837556  0.78287789  0.47436865     0.05200
C225        C  0.66180046  0.80172851  0.52442534     0.27600
C226        C  0.69091942  0.85323725  0.52886123    -0.12900
C227        C  0.73298529  0.87373581  0.02518357     0.05700
C228        C  0.75802578  0.84923175  0.03976966    -0.08800
C229        C  0.73799139  0.79825072  0.53564946     0.06500
C230        C  0.68750980  0.77510998  0.52221009    -0.13200
Br231      Br  0.62940032  0.82955015  0.40399112    -0.05300
Br232      Br  0.46718989  0.65322026  0.06702820     0.00400
Br233      Br  0.76261395  0.92626481  0.97172425     0.00800
Br234      Br  0.65733667  0.70977619  0.48605344    -0.03600
Br235      Br  0.51694167  0.81565163  0.42359660     0.00900
Br236      Br  0.58065265  0.70428482  0.11161162    -0.02900
Br237      Br  0.66462714  0.89801482  0.53631371    -0.03700
Br238      Br  0.76733539  0.75911886  0.54856325     0.00200
C239        C  0.14454213  0.91682428  0.01957758     0.01600
C240        C  0.20362199  0.94259082  0.50505855     0.04500
C241        C  0.23689347  0.93039986  0.52822248    -0.11600
C242        C  0.21928616  0.88907643  0.56248188     0.23800
C243        C  0.16413883  0.87122744  0.08752462    -0.12200
C244        C  0.13063526  0.88387162  0.06696533     0.05200
C245        C  0.24165439  0.85664596  0.55175815     0.27600
C246        C  0.21598875  0.81352133  0.51290736    -0.12900
C247        C  0.22595588  0.77531633  0.51286346     0.05700
C248        C  0.26530018  0.78136341  0.54594776    -0.08800
C249        C  0.29491852  0.82577817  0.57959675     0.06500
C250        C  0.28221735  0.86311855  0.58463589    -0.13200
Br251      Br  0.14267396  0.82214628  0.14550367    -0.05300
Br252      Br  0.22784035  0.99005012  0.44219953     0.00400
Br253      Br  0.18385252  0.71295528  0.47064301     0.00800
Br254      Br  0.31638855  0.92132328  0.12320512    -0.03600
Br255      Br  0.06552719  0.85143258  0.10174545     0.00900
Br256      Br  0.30601883  0.96924041  0.51065194    -0.02900
Br257      Br  0.16323274  0.80397820  0.46399908    -0.03700
Br258      Br  0.34794753  0.83487276  0.10294819     0.00200
C259        C  0.10672414  0.24576168  0.25664634     0.01600
C260        C  0.14857455  0.27886249  0.29078990     0.04500
C261        C  0.16368321  0.32896662  0.29715053    -0.11600
C262        C  0.13787310  0.34813196  0.27018654     0.23800
C263        C  0.09577690  0.31629324  0.23726788    -0.12200
C264        C  0.08144376  0.26643195  0.22879866     0.05200
C265        C  0.15967742  0.40197054  0.26851947     0.27600
C266        C  0.13771103  0.42830636  0.30075953    -0.12900
C267        C  0.15964536  0.47897621  0.29671351     0.05700
C268        C  0.20528010  0.50402694  0.26502211    -0.08800
C269        C  0.22860308  0.47815849  0.23696429     0.06500
C270        C  0.20491820  0.42754482  0.23578550    -0.13200
Br271      Br  0.05686181  0.34059821  0.20333888    -0.05300
Br272      Br  0.18816237  0.25939970  0.32853996     0.00400
Br273      Br  0.12781463  0.51463715  0.33470612     0.00800
Br274      Br  0.23456783  0.39335363  0.18709355    -0.03600
Br275      Br  0.02834382  0.22945687  0.17368399     0.00900
Br276      Br  0.22122765  0.37304613  0.34253861    -0.02900
Br277      Br  0.07937264  0.39624919  0.35311263    -0.03700
Br278      Br  0.29536457  0.51199569  0.20590807     0.00200
C279        C  0.76122263  0.84206434  0.21689502     0.01600
C280        C  0.73276812  0.86553051  0.21930059     0.04500
C281        C  0.68500543  0.84387542  0.24310423    -0.11600
C282        C  0.65719689  0.79272767  0.24045701     0.23800
C283        C  0.68346471  0.76618549  0.22405592    -0.12200
C284        C  0.73560063  0.79111663  0.21759437     0.05200
C285        C  0.60181411  0.76947781  0.24825804     0.27600
C286        C  0.57367372  0.73110443  0.28839761    -0.12900
C287        C  0.52212215  0.70842087  0.28988130     0.05700
C288        C  0.49822487  0.72745709  0.25823632    -0.08800
C289        C  0.52572978  0.76977577  0.22748139     0.06500
C290        C  0.57587459  0.78751395  0.21702132    -0.13200
Br291      Br  0.65124397  0.69645426  0.20990103    -0.05300
Br292      Br  0.75408992  0.92333176  0.17711511     0.00400
Br293      Br  0.48363361  0.65182343  0.33661133     0.00800
Br294      Br  0.60481164  0.83303646  0.15399676    -0.03600
Br295      Br  0.77054237  0.75502700  0.21035816     0.00900
Br296      Br  0.66168289  0.88818553  0.27930127    -0.02900
Br297      Br  0.60324433  0.71190499  0.34737911    -0.03900
Br298      Br  0.49541265  0.80696657  0.20722462     0.00200
C299        C  0.10640214  0.90210324  0.33986002     0.01600
C300        C  0.08371480  0.85267942  0.35477661     0.04500
C301        C  0.10688416  0.82367115  0.34161132    -0.11600
C302        C  0.15322038  0.84232412  0.30969871     0.23800
C303        C  0.17344178  0.88978669  0.28850634    -0.12200
C304        C  0.15129635  0.91957924  0.30428518     0.05200
C305        C  0.18309540  0.81544530  0.30309844     0.27600
C306        C  0.22992084  0.83788156  0.33038819    -0.12900
C307        C  0.25953033  0.81553231  0.32480787     0.05700
C308        C  0.24394202  0.77050646  0.29132302    -0.08800
C309        C  0.19732516  0.74649737  0.26565654     0.06500
C310        C  0.16694575  0.76844475  0.27072300    -0.13200
Br311      Br  0.23210932  0.91480012  0.23548220    -0.05300
Br312      Br  0.01945100  0.82183978  0.39325652     0.00400
Br313      Br  0.32216514  0.84600827  0.36387896     0.00800
Br314      Br  0.10440567  0.73173138  0.23136749    -0.03600
Br315      Br  0.18333685  0.98310642  0.27202254     0.00900
Br316      Br  0.07322026  0.75847629  0.37031146    -0.02900
Br317      Br  0.25471971  0.89903539  0.37852066    -0.03700
Br318      Br  0.17437073  0.68161753  0.22700215     0.00200
C319        C  0.73121680  0.23198399  0.14169587     0.01600
C320        C  0.71592814  0.18820194  0.17008702     0.04500
C321        C  0.74636424  0.16607232  0.16923628    -0.11600
C322        C  0.79516190  0.18796689  0.14294737     0.23800
C323        C  0.81164228  0.23440737  0.11813360    -0.12200
C324        C  0.77946137  0.25468652  0.11571960     0.05200
C325        C  0.82719634  0.16198940  0.14327688     0.27600
C326        C  0.87009134  0.18155030  0.17882818    -0.12900
C327        C  0.89326683  0.15332708  0.18972559     0.05700
C328        C  0.87937106  0.10555509  0.16040086    -0.08800
C329        C  0.83652112  0.08680879  0.12394323     0.06500
C330        C  0.81184288  0.11410570  0.11483668    -0.13200
Br331      Br  0.87753624  0.27128316  0.08346580    -0.05300
Br332      Br  0.65231207  0.15869796  0.21169687     0.00400
Br333      Br  0.93451118  0.17809321  0.25971907     0.00800
Br334      Br  0.75566642  0.08427594  0.06181802    -0.03600
Br335      Br  0.80148082  0.31495801  0.07771388     0.00900
Br336      Br  0.71987236  0.10562118  0.20755498    -0.02900
Br337      Br  0.89690692  0.24720843  0.21837077    -0.03700
Br338      Br  0.80629150  0.02124005  0.08990149     0.00200
C339        C  0.91341286  0.75477600  0.14022232     0.01600
C340        C  0.88022642  0.73517184  0.19118604     0.04500
C341        C  0.84784003  0.68556747  0.19114028    -0.11600
C342        C  0.85474698  0.65313364  0.14737000     0.23800
C343        C  0.89296833  0.67122341  0.10143529    -0.12200
C344        C  0.92233633  0.72176510  0.09747437     0.05200
C345        C  0.82636189  0.60039891  0.15494426     0.27600
C346        C  0.84956172  0.57654959  0.17808982    -0.12900
C347        C  0.82431510  0.52601506  0.18074736     0.05700
C348        C  0.77545418  0.49994222  0.16386068    -0.08800
C349        C  0.75061357  0.52420910  0.14866664     0.06500
C350        C  0.77633686  0.57391470  0.14095926    -0.13200
Br351      Br  0.90140607  0.62616294  0.03969261    -0.05300
Br352      Br  0.88847174  0.77221370  0.26948347     0.00400
Br353      Br  0.85587021  0.49188588  0.20707770     0.00800
Br354      Br  0.74158769  0.60387818  0.11127535    -0.03600
Br355      Br  0.97724917  0.74198035  0.03834263     0.00900
Br356      Br  0.79262056  0.66316837  0.24942678    -0.02900
Br357      Br  0.91564028  0.61286006  0.20671921    -0.03700
Br358      Br  0.68042549  0.48946959  0.14315754     0.00200
C359        C  0.25096186  0.18000267  0.12915964     0.01600
C360        C  0.29138392  0.17360049  0.11177845     0.04500
C361        C  0.33768184  0.21414496  0.10636011    -0.11600
C362        C  0.34649973  0.25935078  0.13804726     0.23800
C363        C  0.30601672  0.26551487  0.15994262    -0.12200
C364        C  0.25832506  0.22687300  0.15095685     0.05200
C365        C  0.39625040  0.29102515  0.16367657     0.27600
C366        C  0.41441115  0.26783241  0.19829828    -0.12900
C367        C  0.46417749  0.28364428  0.19727426     0.05700
C368        C  0.49704557  0.32956382  0.17676648    -0.08800
C369        C  0.47943552  0.35827404  0.15443176     0.06500
C370        C  0.42898849  0.33848933  0.14521449    -0.13200
Br371      Br  0.31410412  0.32383983  0.20805492    -0.05300
Br372      Br  0.28535262  0.10998444  0.11559653     0.00400
Br373      Br  0.48546281  0.23692826  0.20776973     0.00800
Br374      Br  0.40756854  0.37749011  0.10774469    -0.03600
Br375      Br  0.20368788  0.23809445  0.17327333     0.00900
Br376      Br  0.39059303  0.20480207  0.06716852    -0.02900
Br377      Br  0.37081451  0.20922185  0.23763193    -0.03700
Br378      Br  0.52541071  0.42312144  0.13293096     0.00200
C379        C  0.80247341  0.07749412  0.35879258     0.01600
C380        C  0.75566259  0.05346616  0.33179014     0.04500
C381        C  0.71871621  0.06372444  0.35676014    -0.11600
C382        C  0.73108458  0.10367627  0.39993644     0.23800
C383        C  0.77428676  0.12269061  0.43281427    -0.12200
C384        C  0.80951398  0.10843405  0.41444882     0.05200
C385        C  0.71392148  0.13815836  0.38930510     0.27600
C386        C  0.74582026  0.17851464  0.35469830    -0.12900
C387        C  0.73842849  0.21847039  0.35632641     0.05700
C388        C  0.69861714  0.21789568  0.39099802    -0.08800
C389        C  0.66424788  0.17652931  0.42123223     0.06500
C390        C  0.67268500  0.13691233  0.42219428    -0.13200
Br391      Br  0.80948253  0.18874399  0.97845915    -0.05300
Br392      Br  0.74348281  0.01528456  0.25285054     0.00400
Br393      Br  0.78485235  0.27604587  0.31561595     0.00800
Br394      Br  0.63092328  0.08382127  0.47295289    -0.03600
Br395      Br  0.86816582  0.13635592  0.46250577     0.00900
Br396      Br  0.65335510  0.02863483  0.32586707    -0.02900
Br397      Br  0.80487620  0.18336910  0.31456448    -0.03700
Br398      Br  0.60834793  0.17179859  0.96805355     0.00200
C399        C  0.81721741  0.77615384  0.39764807     0.01600
C400        C  0.83977024  0.75229090  0.42424309     0.04500
C401        C  0.81440495  0.70274590  0.43620020    -0.11600
C402        C  0.76921053  0.67138873  0.41006186     0.23800
C403        C  0.74546351  0.69371068  0.38314446    -0.12200
C404        C  0.76786198  0.74571074  0.38206456     0.05200
C405        C  0.74853726  0.61625057  0.41182790     0.27600
C406        C  0.77568357  0.59245859  0.38599579    -0.12900
C407        C  0.75713140  0.54206931  0.39082316     0.05700
C408        C  0.71084887  0.51352389  0.41885805    -0.08800
C409        C  0.68469147  0.53655031  0.44657863     0.06500
C410        C  0.70438673  0.58746192  0.44598378    -0.13200
Br411      Br  0.68399021  0.65317832  0.34388966    -0.05300
Br412      Br  0.90588803  0.78347001  0.44626741     0.00400
Br413      Br  0.79666134  0.51176173  0.36365109     0.00800
Br414      Br  0.65202232  0.60721466  0.98204382    -0.03600
Br415      Br  0.73070521  0.77598622  0.36417101     0.00900
Br416      Br  0.82097640  0.68131653  0.01096667    -0.02900
Br417      Br  0.84064962  0.62739511  0.34834746    -0.03700
Br418      Br  0.61061385  0.48977055  0.97062038     0.00200
C419        C  0.46950983  0.25320819  0.41744523     0.01600
C420        C  0.43764840  0.20733363  0.38816525     0.04500
C421        C  0.38654534  0.19085520  0.38530410    -0.11600
C422        C  0.36561089  0.22010872  0.41303264     0.23800
C423        C  0.39800334  0.26556400  0.44333771    -0.12200
C424        C  0.44562374  0.28064747  0.93684955     0.05200
C425        C  0.31070641  0.20433010  0.41090209     0.27600
C426        C  0.29344713  0.23051535  0.38017178    -0.12900
C427        C  0.24324230  0.20923984  0.36655001     0.05700
C428        C  0.20562060  0.17461626  0.40386251    -0.08800
C429        C  0.22344127  0.14728870  0.43318925     0.06500
C430        C  0.27420670  0.16202652  0.43756124    -0.13200
Br431      Br  0.36595317  0.29805998  0.98348545    -0.05300
Br432      Br  0.46483791  0.16675934  0.35261097     0.00400
Br433      Br  0.23863086  0.18436334  0.28223678     0.00800
Br434      Br  0.29396605  0.12279431  0.96295025    -0.03600
Br435      Br  0.48679291  0.34394784  0.97620672     0.00900
Br436      Br  0.34697493  0.12849246  0.34051275    -0.02900
Br437      Br  0.33839160  0.28702592  0.33753168    -0.03700
Br438      Br  0.18134390  0.08303334  0.45304093     0.00200
C439        C  0.65215057  0.33806377  0.48616174     0.30300
C440        C  0.64924669  0.33727986  0.83125766     0.30300
C441        C  0.68314957  0.32132973  0.43645014    -0.05900
C442        C  0.60145584  0.30779707  0.44692017    -0.06700
C443        C  0.66842607  0.38638246  0.44853311    -0.06500
C444        C  0.67633153  0.31628123  0.86718987    -0.05900
C445        C  0.59960629  0.30835208  0.87374086    -0.06700
C446        C  0.66661323  0.38561620  0.87782867    -0.06500
C447        C  0.67588511  0.27300308  0.85075737    -0.31900
N448        N  0.69069481  0.25979660  0.89914033     0.14600
C449        C  0.70022206  0.29056105  0.44658643    -0.31900
H450        H  0.71920269  0.29236463  0.48721885     0.16500
C451        C  0.55098166  0.28586669  0.85787607    -0.30900
N452        N  0.52063791  0.27173846  0.91004877     0.13300
C453        C  0.55199615  0.28434363  0.46616950    -0.30900
C454        C  0.67940436  0.43211890  0.86457280    -0.31200
N455        N  0.69068002  0.46124719  0.41792858     0.13800
H456        H  0.68036915  0.44392568  0.81821977     0.16400
C457        C  0.68345707  0.43470095  0.46850693    -0.31200
H458        H  0.68831688  0.44957402  0.51687359     0.16400
H459        H  0.53813423  0.27783394  0.51438317     0.16400
H460        H  0.66001402  0.24918007  0.80931202     0.16500
H461        H  0.53841855  0.28184699  0.81108760     0.16400
C462        C  0.65552160  0.33807955  0.73618846     0.30300
C463        C  0.65548032  0.33558325  0.58079058     0.30300
C464        C  0.66251343  0.29783947  0.68981496    -0.05900
C465        C  0.61377454  0.33745134  0.69811526    -0.06700
C466        C  0.69675427  0.38040944  0.69538587    -0.06500
C467        C  0.65927304  0.29383748  0.61825789    -0.05900
C468        C  0.61366062  0.33645645  0.62738350    -0.06700
C469        C  0.69693640  0.37886442  0.62376451    -0.06500
C470        C  0.68084724  0.26425092  0.59821599    -0.31900
N471        N  0.70318648  0.25768177  0.64610959     0.14600
C472        C  0.69433464  0.27996769  0.69930355    -0.31900
H473        H  0.71548116  0.28860482  0.74064642     0.16500
C474        C  0.57740680  0.34662913  0.61567753    -0.30900
N475        N  0.55533039  0.35185629  0.67096043     0.13300
C476        C  0.57885482  0.34969229  0.72023285    -0.30900
C477        C  0.73409277  0.42309545  0.60823565    -0.31200
N478        N  0.75435617  0.45107452  0.66177557     0.13800
H479        H  0.74358146  0.43576176  0.56117721     0.16400
C480        C  0.73349950  0.42573041  0.71363280    -0.31200
H481        H  0.74265445  0.44069486  0.76168149     0.16400
H482        H  0.56920317  0.35444732  0.76942281     0.16400
H483        H  0.67779896  0.24568346  0.55245679     0.16500
H484        H  0.56699571  0.34954560  0.56976156     0.16400
C485        C  0.07326658  0.92493820  0.85737171     0.42800
N486        N  0.01449541  0.94417278  0.86342569     0.01700
C487        C  0.02723332  0.15831431  0.76574355    -0.06200
H488        H  0.11266013  0.19695373  0.87124703     0.07100
C489        C  0.87335104  0.01051739  0.98013360    -0.06600
Co490      Co  0.05551081  0.04783286  0.81895290     0.74200
N491        N  0.05834410  0.12345701  0.89396671    -0.25800
Co492      Co  0.98109594  0.09600437  0.85483860     0.74100
C493        C  0.92481450  0.04513546  0.52092605     0.42900
N494        N  0.86835271  0.90980150  0.88211102     0.01300
N495        N  0.92834487  0.06871094  0.92767047     0.01400
N496        N  0.09542515  0.15349507  0.75403307    -0.46600
H497        H  0.12845341  0.00435476  0.84732764     0.07100
N498        N  0.06998454  0.08917916  0.89648394     0.01700
N499        N  0.91541546  0.07606032  0.81076264     0.01400
C500        C  0.84597483  0.07530128  0.80822457     0.43000
N501        N  0.90610478  0.90235609  0.87735839    -0.25200
C502        C  0.09118551  0.00759216  0.73848545    -0.06100
N503        N  0.02467417  0.90791461  0.86144262    -0.46300
N504        N  0.89425144  0.10362990  0.81723325    -0.46500
C505        C  0.08361511  0.96099972  0.71101864     0.42800
N506        N  0.05845020  0.10994959  0.76909652     0.01600
N507        N  0.89556474  0.91154175  0.74975202    -0.25200
N508        N  0.05427196  0.98739304  0.86354352    -0.25700
N509        N  0.87455189  0.93893071  0.75781504     0.01300
H510        H  0.85889801  0.83413202  0.73272353     0.07200
H511        H  0.80569237  0.99389528  0.80036603     0.07200
N512        N  0.01922805  0.11490887  0.77729112    -0.25800
N513        N  0.89113276  0.02332649  0.92237404    -0.25400
N514        N  0.01471995  0.95757299  0.74525511     0.01700
C515        C  0.14476271  0.14918074  0.89388927     0.43000
C516        C  0.89211214  0.85598499  0.88075726    -0.06600
N517        N  0.88246030  0.03049051  0.79897885    -0.25400
H518        H  0.85377080  0.97311360  0.99039706     0.07200
N519        N  0.11616699  0.10295905  0.90370066    -0.46600
H520        H  0.91650957  0.84222152  0.86477367     0.07200
C521        C  0.81656407  0.87322016  0.71451245     0.42900
C522        C  0.09252124  0.97815909  0.86091294    -0.06100
Co523      Co  0.95706203  0.93064440  0.80879730     0.73800
N524        N  0.82697756  0.86660295  0.88445675    -0.46300
C525        C  0.07671294  0.18454191  0.74864008     0.43200
N526        N  0.03809215  0.93187394  0.73502393    -0.46300
Co527      Co  0.88010634  0.97589663  0.84156309     0.73900
C528        C  0.83908679  0.02714128  0.79275372    -0.06600
C529        C  0.10505018  0.16354319  0.88808892    -0.06200
N530        N  0.04705355  0.00423894  0.74628868    -0.25700
N531        N  0.93479141  0.08627556  0.98693584    -0.46500
H532        H  0.00988626  0.17484126  0.79622213     0.07200
C533        C  0.85964582  0.86759487  0.72649922    -0.06600
Cl534      Cl  0.96822000  0.01259077  0.83283166    -0.49600
C535        C  0.83936919  0.82996437  0.88328861     0.42900
H536        H  0.12524596  0.04002480  0.74896612     0.07100
N537        N  0.83094761  0.91905908  0.73515343    -0.46300
C538        C  0.11946737  0.93333694  0.50113745     0.42800
N539        N  0.05443160  0.94127024  0.49664520     0.01700
C540        C  0.09877139  0.17766686  0.59962304    -0.06200
H541        H  0.16530229  0.14448889  0.73563718     0.07100
C542        C  0.03919258  0.93507540  0.61957126    -0.06600
Co543      Co  0.09198381  0.05296844  0.52235230     0.74200
N544        N  0.12837796  0.10054354  0.65113940    -0.25800
Co545      Co  0.05189261  0.07381358  0.65035273     0.74100
C546        C  0.08755453  0.96342714  0.64139840     0.42900
N547        N  0.93732340  0.87854571  0.62845142     0.01300
N548        N  0.05711850  0.00932105  0.62113733     0.01400
N549        N  0.13138507  0.15949495  0.51317365    -0.46600
H550        H  0.16585012  0.01242193  0.52517342     0.07100
N551        N  0.14577304  0.09017484  0.59601874     0.01700
N552        N  0.97785914  0.06452107  0.66727959     0.01400
C553        C  0.91458121  0.07941695  0.66476264     0.43000
N554        N  0.95517204  0.87161586  0.57220546    -0.25200
C555        C  0.99648240  0.05311075  0.98858181    -0.06100
N556        N  0.06993525  0.90870214  0.49774831    -0.46300
N557        N  0.96443546  0.09903044  0.66477879    -0.46500
C558        C  0.94790240  0.02517176  0.01127778     0.42800
N559        N  0.09790394  0.12005950  0.53874825     0.01600
N560        N  0.90279970  0.90719457  0.53069072    -0.25200
N561        N  0.09203156  0.98614352  0.50163364    -0.25700
N562        N  0.89268977  0.92879437  0.58053655     0.01300
H563        H  0.84590000  0.83404314  0.99629048     0.07200
H564        H  0.86277313  0.99625282  0.66170572     0.07200
N565        N  0.07791985  0.12918681  0.59047822    -0.25800
N566        N  0.01947449  0.96557057  0.62047356    -0.25400
N567        N  0.97754448  0.97962095  0.96625271     0.01700
C568        C  0.20961952  0.14226169  0.64673672     0.43000
C569        C  0.95871942  0.83128244  0.56829699    -0.06600
N570        N  0.93957213  0.02011750  0.66755786    -0.25400
H571        H  0.02078855  0.89860835  0.63191000     0.07200
N572        N  0.19397773  0.11530494  0.59129803    -0.46600
H573        H  0.97868508  0.82302282  0.53043743     0.07200
C574        C  0.82118270  0.87575242  0.54780376     0.42900
C575        C  0.13286830  0.98346695  0.50485691    -0.06100
Co576      Co  0.97864122  0.92577150  0.51174578     0.73800
N577        N  0.92904842  0.84288629  0.66445908    -0.46300
C578        C  0.13038954  0.19711112  0.54550280     0.43200
N579        N  0.93732540  0.98165459  0.98279914    -0.46300
Co580      Co  0.94645414  0.95280070  0.64539880     0.73900
C581        C  0.89924514  0.02614143  0.66506713    -0.06600
C582        C  0.16634089  0.13082200  0.68734217    -0.06200
N583        N  0.01530013  0.02377256  0.96949312    -0.25700
N584        N  0.09836152  0.00685130  0.62297202    -0.46500
H585        H  0.10818714  0.19703628  0.64384543     0.07200
C586        C  0.85994884  0.86926221  0.51329231    -0.06600
Cl587      Cl  0.01425244  0.00287769  0.58463193    -0.49600
C588        C  0.94087196  0.81084867  0.62919008     0.42900
H589        H  0.01400658  0.09168693  0.98946196     0.07100
N590        N  0.84502195  0.91238487  0.59185093    -0.46300
C591        C  0.32578730  0.67267584  0.69344324     0.30300
C592        C  0.32439575  0.67236402  0.84862407     0.30300
C593        C  0.31477157  0.70978383  0.74286037    -0.05900
C594        C  0.28937538  0.62597870  0.73257805    -0.06700
C595        C  0.37118181  0.68064630  0.73202305    -0.06500
C596        C  0.30976528  0.70589907  0.81380774    -0.05900
C597        C  0.28915106  0.62594050  0.80378221    -0.06700
C598        C  0.37178652  0.68445815  0.80289047    -0.06500
C599        C  0.27372628  0.71837063  0.83227685    -0.31900
N600        N  0.26551268  0.73919157  0.78568967     0.14600
C601        C  0.29183532  0.73646447  0.73337464    -0.31900
H602        H  0.29697207  0.75616409  0.69299619     0.16500
C603        C  0.25420326  0.57997645  0.81814556    -0.30900
N604        N  0.23569278  0.55190005  0.76414962     0.13300
C605        C  0.25546202  0.57912916  0.71330265    -0.30900
C606        C  0.42066274  0.70598197  0.81479629    -0.31200
N607        N  0.44659982  0.70459773  0.76175565     0.13800
H608        H  0.43787094  0.72992504  0.85476385     0.16400
C609        C  0.41692528  0.68852712  0.71200655    -0.31200
H610        H  0.42809603  0.68321848  0.66446507     0.16400
H611        H  0.24677031  0.56508101  0.66507903     0.16400
H612        H  0.25036633  0.70778921  0.87406132     0.16500
H613        H  0.24304748  0.56711824  0.86490434     0.16400
C614        C  0.32593732  0.67272525  0.94337750     0.30300
C615        C  0.32500860  0.67423092  0.09848941     0.30300
C616        C  0.29336247  0.68901885  0.99014524    -0.05900
C617        C  0.31383493  0.62643714  0.98036029    -0.06700
C618        C  0.37326613  0.70511675  0.98414010    -0.06500
C619        C  0.28885722  0.68524158  0.06115838    -0.05900
C620        C  0.31449873  0.62753766  0.05137023    -0.06700
C621        C  0.37254582  0.70921049  0.05600711    -0.06500
C622        C  0.26705790  0.71278186  0.08333189    -0.31900
N623        N  0.26795894  0.73968898  0.03743770     0.14600
C624        C  0.28618187  0.72784362  0.98342188    -0.31900
H625        H  0.30044933  0.75121196  0.94499081     0.16500
C626        C  0.30585112  0.58239943  0.06321702    -0.30900
N627        N  0.29811002  0.55426339  0.00818483     0.13300
C628        C  0.30489388  0.58065334  0.95841349    -0.30900
C629        C  0.42106273  0.73140746  0.07050029    -0.31200
N630        N  0.44861934  0.73275838  0.01766769     0.13800
H631        H  0.43516816  0.74371699  0.11675998     0.16400
C632        C  0.41935841  0.71232091  0.96843000    -0.31200
H633        H  0.42780074  0.69239986  0.93020081     0.16400
H634        H  0.30284574  0.56677463  0.90959036     0.16400
H635        H  0.25031602  0.71240066  0.12923971     0.16500
H636        H  0.30280771  0.56978833  0.10933310     0.16400
C637        C  0.15759962  0.24782092  0.52813415     0.01600
C638        C  0.20814367  0.27410531  0.53457793     0.04500
C639        C  0.23273357  0.32451473  0.53304217    -0.11600
C640        C  0.19095112  0.34664968  0.02139479     0.23800
C641        C  0.13933522  0.32043781  0.01284960    -0.12200
C642        C  0.11230048  0.27087144  0.02532956     0.05200
C643        C  0.22012658  0.40087710  0.01550247     0.27600
C644        C  0.20213458  0.43163538  0.04531724    -0.12900
C645        C  0.22465345  0.48046365  0.03354045     0.05700
C646        C  0.27141646  0.50250958  0.00560604    -0.08800
C647        C  0.29162847  0.47409241  0.97738579     0.06500
C648        C  0.26514829  0.42311595  0.97874650    -0.13200
Br649      Br  0.10424021  0.34946110  0.97965819    -0.05300
Br650      Br  0.24506904  0.24119548  0.53635856     0.00400
Br651      Br  0.18978720  0.51691901  0.05081843     0.00800
Br652      Br  0.29163345  0.38693907  0.92601921    -0.03600
Br653      Br  0.04192592  0.23679523  0.02077342     0.00900
Br654      Br  0.29536461  0.36033401  0.57090392    -0.02900
Br655      Br  0.16157947  0.40206315  0.59643225    -0.03700
Br656      Br  0.35515517  0.50588135  0.93579426     0.00200
C657        C  0.49901398  0.74464093  0.01446870     0.01600
C658        C  0.51438050  0.71773613  0.04544473     0.04500
C659        C  0.56446707  0.73495995  0.05212129    -0.11600
C660        C  0.59958584  0.77408577  0.01701628     0.23800
C661        C  0.58142586  0.78976855  0.97121306    -0.12200
C662        C  0.53254366  0.77943741  0.97420100     0.05200
C663        C  0.65414406  0.79993757  0.02709034     0.27600
C664        C  0.68192688  0.85140993  0.02911438    -0.12900
C665        C  0.74206899  0.87471746  0.52414974     0.05700
C666        C  0.76654201  0.84931301  0.53720572    -0.08800
C667        C  0.73054463  0.79834770  0.04018861     0.06500
C668        C  0.68039772  0.77424876  0.02669837    -0.13200
Br669      Br  0.62221486  0.82004253  0.90042728    -0.05300
Br670      Br  0.47341937  0.65645371  0.56793020     0.00400
Br671      Br  0.77242159  0.92742442  0.47078580     0.00800
Br672      Br  0.65182638  0.70924750  0.99061803    -0.03600
Br673      Br  0.51240117  0.81345755  0.92378123     0.00900
Br674      Br  0.58704536  0.70468948  0.60562442    -0.02900
Br675      Br  0.65343922  0.89424374  0.03023064    -0.03700
Br676      Br  0.76091634  0.76056970  0.05481066     0.00200
C677        C  0.15317739  0.91756595  0.52348082     0.01600
C678        C  0.19466209  0.94045620  0.99913444     0.04500
C679        C  0.22810153  0.92790704  0.02143917    -0.11600
C680        C  0.21095730  0.88827962  0.05897813     0.23800
C681        C  0.17078526  0.86810485  0.58672431    -0.12200
C682        C  0.13823420  0.88268468  0.56842421     0.05200
C683        C  0.23091444  0.85329607  0.04989130     0.27600
C684        C  0.20180400  0.80772450  0.01696290    -0.12900
C685        C  0.21314858  0.77004344  0.01577061     0.05700
C686        C  0.25510861  0.77761585  0.04419274    -0.08800
C687        C  0.28656011  0.82346791  0.07309646     0.06500
C688        C  0.27406222  0.86103781  0.07773219    -0.13200
Br689      Br  0.14549415  0.81071338  0.63210329    -0.05300
Br690      Br  0.21804374  0.98563850  0.93399881     0.00400
Br691      Br  0.17072360  0.70684223  0.97612769     0.00800
Br692      Br  0.32045416  0.92134409  0.63672306    -0.03600
Br693      Br  0.07358812  0.85203336  0.60474065     0.00900
Br694      Br  0.29679668  0.96465975  0.99904021    -0.02900
Br695      Br  0.14429844  0.79494244  0.97504095    -0.03700
Br696      Br  0.35362671  0.83550539  0.61599455     0.00200
C697        C  0.10033723  0.23948545  0.74651127     0.01600
C698        C  0.12131094  0.26954983  0.80091747     0.04500
C699        C  0.14730183  0.31987656  0.79721566    -0.11600
C700        C  0.13412602  0.34180183  0.75401093     0.23800
C701        C  0.09737979  0.31075932  0.71154720    -0.12200
C702        C  0.08314936  0.26049766  0.70459067     0.05200
C703        C  0.15882736  0.39638391  0.75535551     0.27600
C704        C  0.13545840  0.42311556  0.78160566    -0.12900
C705        C  0.16009710  0.47439755  0.78210871     0.05700
C706        C  0.20924184  0.49954936  0.76095013    -0.08800
C707        C  0.23407943  0.47327856  0.74173880     0.06500
C708        C  0.20889184  0.42224554  0.73736739    -0.13200
Br709      Br  0.05994944  0.33395020  0.67218835    -0.05300
Br710      Br  0.07675324  0.25414252  0.87173165     0.00400
Br711      Br  0.12749018  0.51086654  0.81313697     0.00800
Br712      Br  0.24378717  0.38776603  0.70829364    -0.03600
Br713      Br  0.03525426  0.22193734  0.64242992     0.00900
Br714      Br  0.18822460  0.35906371  0.86391052    -0.02900
Br715      Br  0.07229252  0.39041338  0.82366898    -0.03700
Br716      Br  0.30385111  0.50776355  0.72703539     0.00200
C717        C  0.76207119  0.83991783  0.71105455     0.01600
C718        C  0.73281642  0.86266721  0.71463810     0.04500
C719        C  0.68533411  0.84005085  0.73957619    -0.11600
C720        C  0.65801810  0.78877397  0.73591061     0.23800
C721        C  0.68511373  0.76315342  0.71823099    -0.12200
C722        C  0.73728773  0.78894060  0.71198239     0.05200
C723        C  0.60237700  0.76496112  0.74397705     0.27600
C724        C  0.57389606  0.72588055  0.78328887    -0.12900
C725        C  0.52233505  0.70454346  0.78679234     0.05700
C726        C  0.49880172  0.72517712  0.75780665    -0.08800
C727        C  0.52669205  0.76739677  0.72694242     0.06500
C728        C  0.57651555  0.78397768  0.71448901    -0.13200
Br729      Br  0.65437548  0.69366058  0.70253002    -0.05300
Br730      Br  0.75344670  0.92217016  0.67603166     0.00400
Br731      Br  0.48325326  0.64809545  0.83365637     0.00800
Br732      Br  0.60527839  0.83020844  0.65206428    -0.03600
Br733      Br  0.77333388  0.75389213  0.70641000     0.00900
Br734      Br  0.66178121  0.88327211  0.77921708    -0.02900
Br735      Br  0.60256125  0.70405531  0.83977583    -0.03900
Br736      Br  0.49746604  0.80625983  0.70967390     0.00200
C737        C  0.09667356  0.89250368  0.83617129     0.01600
C738        C  0.07235190  0.84264883  0.85002881     0.04500
C739        C  0.09447891  0.81253864  0.83701539    -0.11600
C740        C  0.14071213  0.83001701  0.80541354     0.23800
C741        C  0.16221925  0.87747826  0.78425351    -0.12200
C742        C  0.14185431  0.90879428  0.80087153     0.05200
C743        C  0.17022076  0.80280461  0.80156999     0.27600
C744        C  0.21540020  0.82461018  0.83246055    -0.12900
C745        C  0.24592361  0.80329611  0.82794580     0.05700
C746        C  0.23294783  0.75981095  0.79128317    -0.08800
C747        C  0.18738719  0.73599842  0.76238362     0.06500
C748        C  0.15595318  0.75692373  0.76722223    -0.13200
Br749      Br  0.22214285  0.90127075  0.73365107    -0.05300
Br750      Br  0.00768858  0.81294764  0.88761387     0.00400
Br751      Br  0.30661438  0.83395184  0.87170511     0.00800
Br752      Br  0.09448963  0.72121592  0.72535345    -0.03600
Br753      Br  0.17842715  0.97331792  0.77209317     0.00900
Br754      Br  0.06066149  0.74761337  0.86598577    -0.02900
Br755      Br  0.23735710  0.88489149  0.88118536    -0.03700
Br756      Br  0.16751966  0.67306003  0.71908384     0.00200
C757        C  0.73347582  0.23329131  0.64292000     0.01600
C758        C  0.71673637  0.18937580  0.67135705     0.04500
C759        C  0.74623871  0.16636040  0.67212156    -0.11600
C760        C  0.79509147  0.18677282  0.64569589     0.23800
C761        C  0.81245216  0.23267449  0.61893070    -0.12200
C762        C  0.78160793  0.25447219  0.61646104     0.05200
C763        C  0.82684848  0.16043736  0.64682909     0.27600
C764        C  0.87210584  0.18238399  0.67760110    -0.12900
C765        C  0.89822727  0.15634600  0.68533514     0.05700
C766        C  0.88405143  0.10769149  0.65863760    -0.08800
C767        C  0.83874435  0.08660801  0.62676064     0.06500
C768        C  0.81131589  0.11184981  0.62075247    -0.13200
Br769      Br  0.87623448  0.26407500  0.57626213    -0.05300
Br770      Br  0.65169536  0.16043340  0.70923263     0.00400
Br771      Br  0.94758397  0.18802395  0.74521212     0.00800
Br772      Br  0.75233724  0.07871446  0.57283399    -0.03600
Br773      Br  0.80470312  0.31355953  0.57514827     0.00900
Br774      Br  0.71806133  0.10720008  0.71326809    -0.02900
Br775      Br  0.89898853  0.24914576  0.71419719    -0.03700
Br776      Br  0.81107129  0.02161433  0.59055220     0.00200
C777        C  0.92285440  0.75841174  0.64122332     0.01600
C778        C  0.89002518  0.73864347  0.69249074     0.04500
C779        C  0.85891170  0.68881192  0.69337183    -0.11600
C780        C  0.86711124  0.65660601  0.65061248     0.23800
C781        C  0.90559091  0.67507373  0.60515869    -0.12200
C782        C  0.93303804  0.72563983  0.59936987     0.05200
C783        C  0.83741353  0.60362084  0.65625174     0.27600
C784        C  0.85793739  0.57787283  0.68088912    -0.12900
C785        C  0.83063867  0.52718855  0.68260865     0.05700
C786        C  0.78206524  0.50282563  0.66373331    -0.08800
C787        C  0.76009385  0.52920561  0.64605007     0.06500
C788        C  0.78820582  0.57892396  0.63889410    -0.13200
Br789      Br  0.91728572  0.63021815  0.54676678    -0.05300
Br790      Br  0.89551154  0.77663724  0.76937627     0.00400
Br791      Br  0.85919333  0.49072426  0.71024661     0.00800
Br792      Br  0.75830843  0.61230619  0.60571450    -0.03600
Br793      Br  0.98612964  0.74595282  0.53726661     0.00900
Br794      Br  0.80306219  0.66584581  0.75088094    -0.02900
Br795      Br  0.92295516  0.61199299  0.71317740    -0.03700
Br796      Br  0.69037417  0.49773563  0.63734879     0.00200
C797        C  0.25852631  0.18603109  0.65210954     0.01600
C798        C  0.29853835  0.18089279  0.62788956     0.04500
C799        C  0.34313879  0.22193255  0.61461896    -0.11600
C800        C  0.35294331  0.26814666  0.64406624     0.23800
C801        C  0.31340391  0.27348279  0.67239570    -0.12200
C802        C  0.26587814  0.23304473  0.67353327     0.05200
C803        C  0.40398497  0.30059888  0.66573794     0.27600
C804        C  0.42282167  0.27795246  0.69990206    -0.12900
C805        C  0.47205568  0.29227485  0.69562185     0.05700
C806        C  0.50483053  0.33807788  0.67532541    -0.08800
C807        C  0.48742183  0.36716381  0.65382685     0.06500
C808        C  0.43682308  0.34766894  0.64556945    -0.13200
Br809      Br  0.32369415  0.33542366  0.71074375    -0.05300
Br810      Br  0.29565837  0.11866671  0.63196129     0.00400
Br811      Br  0.49191068  0.24360232  0.70024076     0.00800
Br812      Br  0.41604556  0.38696518  0.60790068    -0.03600
Br813      Br  0.21160410  0.24435850  0.69710945     0.00900
Br814      Br  0.39471707  0.21199980  0.57182186    -0.02900
Br815      Br  0.38036263  0.22122935  0.74197167    -0.03700
Br816      Br  0.53390809  0.43178084  0.63200257     0.00200
C817        C  0.80806320  0.08309129  0.84514331     0.01600
C818        C  0.75899456  0.05855368  0.82547962     0.04500
C819        C  0.72444261  0.07006697  0.85670656    -0.11600
C820        C  0.74063323  0.11092142  0.89931029     0.23800
C821        C  0.78667194  0.13035521  0.92507888    -0.12200
C822        C  0.81976845  0.11495273  0.90060337     0.05200
C823        C  0.72188035  0.14490856  0.89445190     0.27600
C824        C  0.75024225  0.18506120  0.85795279    -0.12900
C825        C  0.74024332  0.22329866  0.86093299     0.05700
C826        C  0.69946975  0.21988391  0.89591770    -0.08800
C827        C  0.66858203  0.17861758  0.92883205     0.06500
C828        C  0.68141218  0.14207891  0.93111563    -0.13200
Br829      Br  0.79098339  0.17954026  0.48717467    -0.05300
Br830      Br  0.73919183  0.01516809  0.75048976     0.00400
Br831      Br  0.78466786  0.28260066  0.82201889     0.00800
Br832      Br  0.64694772  0.09154386  0.98832548    -0.03600
Br833      Br  0.88115105  0.14209245  0.94219879     0.00900
Br834      Br  0.65648522  0.03476594  0.83585334    -0.02900
Br835      Br  0.80747252  0.19167212  0.81098947    -0.03700
Br836      Br  0.60585465  0.17464553  0.46003509     0.00200
C837        C  0.80878342  0.77528655  0.89669167     0.01600
C838        C  0.82917686  0.75131711  0.92732547     0.04500
C839        C  0.80158089  0.70277454  0.94276325    -0.11600
C840        C  0.75873529  0.67066588  0.91205117     0.23800
C841        C  0.73744350  0.69277631  0.87949972    -0.12200
C842        C  0.75992889  0.74496471  0.87883650     0.05200
C843        C  0.73965281  0.61549401  0.91340534     0.27600
C844        C  0.77094245  0.59470536  0.89505620    -0.12900
C845        C  0.75421182  0.54443983  0.89856306     0.05700
C846        C  0.70652461  0.51326585  0.92027707    -0.08800
C847        C  0.67595227  0.53302895  0.94069345     0.06500
C848        C  0.69260039  0.58345959  0.93924966    -0.13200
Br849      Br  0.68039526  0.65193628  0.83211545    -0.05300
Br850      Br  0.89512923  0.77979443  0.94886657     0.00400
Br851      Br  0.79731272  0.51744084  0.87632323     0.00800
Br852      Br  0.67443504  0.61732248  0.50194704    -0.03600
Br853      Br  0.72357157  0.77587825  0.86095227     0.00900
Br854      Br  0.84062586  0.67816318  0.49328405    -0.02900
Br855      Br  0.83872528  0.63357733  0.86908015    -0.03700
Br856      Br  0.62135281  0.49763991  0.48522600     0.00200
C857        C  0.46738908  0.25276362  0.90966356     0.01600
C858        C  0.43639290  0.20721288  0.87874377     0.04500
C859        C  0.38532052  0.19042190  0.87347296    -0.11600
C860        C  0.36331812  0.21941055  0.89924172     0.23800
C861        C  0.39444017  0.26346005  0.93382093    -0.12200
C862        C  0.44905556  0.28228566  0.44426444     0.05200
C863        C  0.30796029  0.20278393  0.89420212     0.27600
C864        C  0.28915001  0.23106237  0.87055124    -0.12900
C865        C  0.23749081  0.21592638  0.87206479     0.05700
C866        C  0.20179656  0.16948004  0.89080483    -0.08800
C867        C  0.22220870  0.14103147  0.91035395     0.06500
C868        C  0.27285103  0.15871118  0.91712475    -0.13200
Br869      Br  0.37178608  0.30402576  0.48789969    -0.05300
Br870      Br  0.46467467  0.16748617  0.84371719     0.00400
Br871      Br  0.21667955  0.26150384  0.85730160     0.00800
Br872      Br  0.29333318  0.12285219  0.47909362    -0.03600
Br873      Br  0.49166874  0.34638308  0.48025708     0.00900
Br874      Br  0.34758435  0.12859407  0.82563894    -0.02900
Br875      Br  0.33445188  0.29156625  0.83730414    -0.03700
Br876      Br  0.18414720  0.07520070  0.92618243     0.00200
loop_ 
_geom_bond_atom_site_label_1 
_geom_bond_atom_site_label_2 
_geom_bond_distance 
_geom_bond_site_symmetry_2 
_ccdc_geom_bond_type 
C1            C3   1.594       .  S
C1            C5   1.635       .  S
C1            C4   1.653       .  S
C1           C25   2.035   1_556  S
C2            C6   1.580       .  S
C2            C8   1.608       .  S
C2            C7   1.622       .  S
C2           C24   2.014       .  S
C3           C11   1.352       .  A
C3          C444   1.506       .  A
C4           C15   1.408       .  A
C4          C445   1.512       .  A
C5           C19   1.395       .  A
C5          C446   1.511       .  A
C6            C9   1.370       .  A
C6          C441   1.508       .  A
C7           C13   1.385       .  A
C7          C442   1.512       .  A
C8           C16   1.378       .  A
C8          C443   1.510       .  A
C9           N10   1.337       .  A
C9           H22   1.077       .  S
N10         C449   1.342       .  A
N10         C388   1.416       .  S
C11         N448   1.338       .  A
C11          H12   1.069       .  S
C13          N14   1.360       .  A
C13          H23   1.071       .  S
N14         C453   1.371       .  A
N14         C419   1.470       .  S
C15         N452   1.373       .  A
C15          H21   1.079   1_556  S
C16         N455   1.357       .  A
C16          H18   1.080       .  S
N17          C19   1.368       .  A
N17         C454   1.356       .  A
N17         C846   1.455       .  S
C19          H20   1.076   1_556  S
C24          C26   1.620       .  S
C24          C28   1.603       .  S
C24          C27   1.591       .  S
C25          C29   1.671       .  S
C25          C31   1.606       .  S
C25          C30   1.595       .  S
C26          C34   1.401       .  A
C26          C29   1.520       .  A
C27          C38   1.370       .  A
C27          C30   1.500       .  A
C28          C42   1.368       .  A
C28          C31   1.514       .  A
C29          C32   1.419       .  A
C30          C36   1.372       .  A
C31          C39   1.365       .  A
C32          N33   1.366       .  A
C32          H45   1.066       .  S
N33          C34   1.351       .  A
N33         C319   1.483       .  S
C34          H35   1.073       .  S
C36          N37   1.354       .  A
C36          H46   1.078       .  S
N37          C38   1.354       .  A
N37         C368   1.429       .  S
C38          H44   1.080       .  S
C39          N40   1.356       .  A
C39          H41   1.080       .  S
N40          C42   1.353       .  A
N40         C348   1.424       .  S
C42          H43   1.077       .  S
C47          N65   1.347       .  A
C47          C84   1.484       .  S
C47         C299   1.533       .  S
N48          N65   1.325       .  A
N48          N70   1.328       .  A
N48         Co85   2.068   1_455  S
C49          N74   1.324       .  A
C49          H94   1.075       .  S
C49          C87   1.415       .  S
H50          C91   1.071       .  S
C51          N75   1.324       .  A
C51          H80   1.074   1_545  S
C51         C493   1.437       .  S
Co52         N70   2.174   1_545  S
Co52         N60   1.879       .  S
Co52         N92   1.916       .  S
Co52         N68   2.268       .  S
Co52        Cl96   2.409   1_455  S
N53          C91   1.396       .  A
N53          N60   1.308       .  A
N53         Co54   2.332   1_455  S
Co54         N57   2.077       .  S
Co54         N74   1.965   1_655  S
Co54         N61   2.118       .  S
Co54        Cl96   2.474       .  S
C55         N531   1.339   1_554  A
C55         C489   1.439   1_554  S
C55         C558   1.469       .  S
N56          N63   1.310       .  A
N56          N86   1.355       .  A
N56         Co89   2.201       .  S
N57          N75   1.342       .  A
N57          N93   1.309       .  A
N58          C87   1.381       .  A
N58          N68   1.353       .  A
H59          C84   1.073   1_545  S
N60          N81   1.310       .  A
N61          N79   1.318       .  A
N61          N66   1.325       .  A
C62          N66   1.351       .  A
C62          C90   1.434       .  S
C62         C379   1.483       .  S
N63          C78   1.321       .  A
N63         Co85   1.984       .  S
C64          N92   1.339       .  A
C64          H98   1.082       .  S
C64          C67   1.442   1_545  S
C67          N88   1.354       .  A
C67         C108   1.479       .  S
N68          N74   1.319       .  A
N69          C95   1.371       .  A
N69          N71   1.313       .  A
N69         Co85   2.196       .  S
N70          C84   1.357       .  A
N71          N99   1.308       .  A
N71         Co89   1.994       .  S
H72          C95   1.069       .  S
H73          C90   1.081   1_565  S
N75         Co89   2.100   1_545  S
N76          N88   1.329       .  A
N76          N92   1.324   1_565  A
N76         Co85   2.032   1_455  S
C77          N81   1.313       .  A
C77          C91   1.565       .  S
C77         C428   1.591       .  S
C78          H82   1.074       .  S
C78          C97   1.445       .  S
N79          C90   1.332       .  A
N79         Co89   2.004   1_545  S
C83          N99   1.329       .  A
C83          C95   1.490       .  S
C83         C279   1.515       .  S
Co85        Cl96   2.452   1_565  S
N86          C97   1.389       .  A
C87         C259   1.534       .  S
Co89        Cl96   2.419   1_565  S
N93         C493   1.334       .  A
C97         C399   1.561       .  S
C100        N118   1.366       .  A
C100        C137   1.435       .  S
C100        C239   1.504   1_556  S
N101        N118   1.341       .  A
N101        N123   1.334       .  A
N101       Co138   2.191   1_456  S
C102        N127   1.342       .  A
C102        H147   1.048       .  S
C102        C140   1.446       .  S
H103        C144   1.061       .  S
C104        N128   1.380       .  A
C104        H133   1.062       .  S
C104        C108   1.424       .  S
Co105       N123   2.118   1_544  S
Co105       N113   2.111       .  S
Co105       N121   2.052       .  S
Co105       N583   2.057   1_554  S
Co105      Cl149   2.506       .  S
N106        C144   1.328       .  A
N106        N113   1.330       .  A
N106       Co107   2.145       .  S
Co107       N110   2.231       .  S
Co107       N127   2.069       .  S
Co107       N114   2.194   1_455  S
Co107      Cl149   2.449       .  S
C108        N146   1.335   1_565  A
N109        N116   1.322       .  A
N109        N139   1.335       .  A
N109       Co142   2.220       .  S
N110        N128   1.314   1_545  A
N110        N146   1.354       .  A
N111        C140   1.332       .  A
N111        N121   1.320       .  A
H112        C137   1.079   1_544  S
N113        N134   1.323       .  A
N114        N132   1.330       .  A
N114        N119   1.352       .  A
C115        N119   1.371       .  A
C115        C143   1.508       .  S
C115        C328   1.607       .  S
N116        C131   1.330       .  A
N116       Co138   2.056       .  S
C117        N145   1.346       .  A
C117        H151   1.066       .  S
C117        C120   1.411   1_455  S
C120        N141   1.335   1_545  A
C120        C493   1.463       .  S
N121        N127   1.301       .  A
N122        C148   1.338       .  A
N122        N124   1.301       .  A
N122       Co138   2.156       .  S
N123        C137   1.337       .  A
N124        N152   1.331       .  A
N124       Co142   2.043       .  S
H125        C586   1.066       .  S
H126        C143   1.073   1_565  S
N128       Co142   2.118   1_455  S
N129        N141   1.312       .  A
N129        N145   1.331   1_665  A
N129       Co576   2.027       .  S
C130        N134   1.350       .  A
C130        C144   1.457       .  S
C130        C359   1.481       .  S
C131        H135   1.072       .  S
C131        C150   1.454       .  S
N132        C143   1.374       .  A
N132       Co142   2.213   1_545  S
C136        N152   1.349       .  A
C136        C148   1.456       .  S
C136        C228   1.509       .  S
Co138       N567   2.019   1_554  S
Co138      Cl149   2.604   1_665  S
N139        C150   1.373       .  A
C140        C199   1.490       .  S
Co142      Cl149   2.374   1_665  S
N145       Co543   2.079       .  S
C148        H563   1.063   1_554  S
C150        C339   1.510       .  S
C153        C155   1.628       .  S
C153        C157   1.610       .  S
C153        C156   1.622       .  S
C153        C615   2.025       .  S
C154        C158   1.610       .  S
C154        C160   1.594       .  S
C154        C159   1.602       .  S
C154        C176   2.015       .  S
C155        C163   1.379       .  A
C155        C158   1.516       .  A
C156        C167   1.380       .  A
C156        C159   1.511       .  A
C157        C171   1.375       .  A
C157        C160   1.501       .  A
C158        C161   1.386       .  A
C159        C165   1.371       .  A
C160        C168   1.367       .  A
C161        N162   1.349       .  A
C161        H174   1.073       .  S
N162        C163   1.350       .  A
N162        C308   1.444       .  S
C163        H164   1.068       .  S
C165        N166   1.354       .  A
C165        H175   1.080       .  S
N166        C167   1.363       .  A
N166        C268   1.439       .  S
C167        H173   1.077       .  S
C168        N169   1.342       .  A
C168        H170   1.067       .  S
N169        C171   1.353       .  A
N169        C288   1.435       .  S
C171        H172   1.064       .  S
C176        C178   1.582       .  S
C176        C180   1.607       .  S
C176        C179   1.601       .  S
C177        C181   1.612       .  S
C177        C183   1.640       .  S
C177        C182   1.605       .  S
C177        C591   2.026       .  S
C178        C186   1.370       .  A
C178        C181   1.512       .  A
C179        C190   1.373       .  A
C179        C182   1.509       .  A
C180        C194   1.378       .  A
C180        C183   1.518       .  A
C181        C184   1.368       .  A
C182        C188   1.369       .  A
C183        C191   1.387       .  A
C184        N185   1.342       .  A
C184        H197   1.070       .  S
N185        C186   1.338       .  A
N185        C248   1.421       .  S
C186        H187   1.077       .  S
C188        N189   1.358       .  A
C188        H198   1.080       .  S
N189        C190   1.354       .  A
N189        C208   1.429       .  S
C190        H196   1.080       .  S
C191        N192   1.357       .  A
C191        H193   1.066       .  S
N192        C194   1.342       .  A
N192        C219   1.447       .  S
C194        H195   1.071       .  S
C199        C200   1.406       .  A
C199        C642   1.406       .  A
C200        C201   1.403       .  A
C200       Br212   1.913       .  S
C201        C640   1.418       .  A
C201       Br216   1.935       .  S
C202        C203   1.425       .  A
C202        C639   1.408       .  A
C202        C205   1.500       .  S
C203        C204   1.410       .  A
C203       Br211   1.930       .  S
C204        C637   1.407       .  A
C204       Br215   1.935       .  S
C205        C206   1.411       .  A
C205        C210   1.429       .  A
C206        C207   1.389       .  A
C206       Br655   1.904       .  S
C207        C208   1.397       .  A
C207       Br213   1.934       .  S
C208        C209   1.404       .  A
C209        C210   1.413       .  A
C209       Br218   1.925       .  S
C210       Br214   1.942       .  S
Br217       C644   1.918       .  S
C219        C220   1.398       .  A
C219        C224   1.409       .  A
C220        C221   1.411       .  A
C220       Br670   1.929       .  S
C221        C222   1.430       .  A
C221       Br674   1.898       .  S
C222        C223   1.411       .  A
C222        C225   1.537       .  S
C223        C224   1.413       .  A
C223       Br231   1.902       .  S
C224       Br235   1.926       .  S
C225        C226   1.427       .  A
C225        C230   1.418       .  A
C226        C665   1.406       .  A
C226       Br237   1.945       .  S
C227        C228   1.412       .  A
C227        C664   1.402       .  A
C227       Br233   1.905   1_554  S
C228        C667   1.411       .  A
C229        C230   1.425       .  A
C229        C666   1.415       .  A
C229       Br238   1.917       .  S
C230       Br234   1.911       .  S
Br232       C658   1.928       .  S
Br236       C659   1.903       .  S
C239        C244   1.411       .  A
C239        C678   1.428   1_554  A
C240        C241   1.411       .  A
C240        C677   1.426       .  A
C240       Br252   1.937       .  S
C241        C242   1.404       .  A
C241       Br256   1.932       .  S
C242        C681   1.410       .  A
C242        C245   1.492       .  S
C243        C244   1.405       .  A
C243        C680   1.405       .  A
C243       Br251   1.903       .  S
C244       Br255   1.912       .  S
C245        C246   1.414       .  A
C245        C250   1.417       .  A
C246        C247   1.388       .  A
C246       Br257   1.906       .  S
C247        C248   1.391       .  A
C247       Br253   1.934       .  S
C248        C249   1.408       .  A
C249        C250   1.411       .  A
C249       Br696   1.927       .  S
C250       Br692   1.925       .  S
Br254       C688   1.924       .  S
Br258       C687   1.927       .  S
C259        C260   1.417       .  A
C259        C264   1.436       .  A
C260        C261   1.412       .  A
C260       Br272   1.888       .  S
C261        C262   1.404       .  A
C261       Br276   1.921       .  S
C262        C263   1.400       .  A
C262        C265   1.499       .  S
C263        C264   1.411       .  A
C263       Br271   1.940       .  S
C264       Br275   1.911       .  S
C265        C266   1.417       .  A
C265        C270   1.413       .  A
C266        C267   1.414       .  A
C266       Br277   1.929       .  S
C267        C268   1.409       .  A
C267       Br273   1.925       .  S
C268        C269   1.406       .  A
C269        C270   1.399       .  A
C269       Br278   1.928       .  S
C270       Br274   1.925       .  S
C279        C280   1.408       .  A
C279        C284   1.411       .  A
C280        C281   1.388       .  A
C280       Br292   1.909       .  S
C281        C282   1.415       .  A
C281       Br296   1.945       .  S
C282        C283   1.441       .  A
C282        C285   1.526       .  S
C283        C284   1.432       .  A
C283       Br291   1.931       .  S
C284       Br295   1.920       .  S
C285        C286   1.425       .  A
C285        C290   1.429       .  A
C286        C287   1.415       .  A
C286       Br297   1.919       .  S
C287        C288   1.406       .  A
C287       Br293   1.929       .  S
C288        C289   1.389       .  A
C289        C290   1.398       .  A
C289       Br298   1.931       .  S
C290       Br294   1.902       .  S
C299        C300   1.427       .  A
C299        C304   1.422       .  A
C300        C301   1.419       .  A
C300       Br312   1.918       .  S
C301        C302   1.420       .  A
C301       Br316   1.944       .  S
C302        C303   1.424       .  A
C302        C305   1.534       .  S
C303        C304   1.422       .  A
C303       Br311   1.930       .  S
C304       Br315   1.931       .  S
C305        C306   1.427       .  A
C305        C310   1.434       .  A
C306        C307   1.408       .  A
C306       Br317   1.912       .  S
C307        C308   1.396       .  A
C307       Br313   1.933       .  S
C308        C309   1.406       .  A
C309        C310   1.420       .  A
C309       Br318   1.930       .  S
C310       Br314   1.936       .  S
C319        C320   1.411       .  A
C319        C324   1.416       .  A
C320        C321   1.431       .  A
C320       Br332   1.928       .  S
C321        C322   1.432       .  A
C321       Br336   1.917       .  S
C322        C323   1.442       .  A
C322        C325   1.579       .  S
C323        C324   1.442       .  A
C323       Br331   1.942       .  S
C324       Br335   1.926       .  S
C325        C326   1.422       .  A
C325        C330   1.430       .  A
C326        C327   1.442       .  A
C326       Br337   1.947       .  S
C327        C328   1.441       .  A
C327       Br333   1.892       .  S
C328        C329   1.434       .  A
C329        C330   1.446       .  A
C329       Br338   1.903       .  S
C330       Br334   1.936       .  S
C339        C340   1.404       .  A
C339        C344   1.430       .  A
C340        C341   1.395       .  A
C340       Br352   1.893       .  S
C341        C342   1.399       .  A
C341       Br356   1.920       .  S
C342        C343   1.407       .  A
C342        C345   1.481       .  S
C343        C344   1.413       .  A
C343       Br351   1.938       .  S
C344       Br355   1.926       .  S
C345        C346   1.417       .  A
C345        C350   1.414       .  A
C346        C347   1.403       .  A
C346       Br357   1.932       .  S
C347        C348   1.399       .  A
C347       Br353   1.926       .  S
C348        C349   1.405       .  A
C349        C350   1.397       .  A
C349       Br358   1.933       .  S
C350       Br354   1.929       .  S
C359        C360   1.396       .  A
C359        C364   1.419       .  A
C360        C361   1.401       .  A
C360       Br372   1.938       .  S
C361        C362   1.423       .  A
C361       Br376   1.936       .  S
C362        C363   1.414       .  A
C362        C365   1.497       .  S
C363        C364   1.411       .  A
C363       Br371   1.928       .  S
C364       Br375   1.929       .  S
C365        C366   1.409       .  A
C365        C370   1.422       .  A
C366        C367   1.389       .  A
C366       Br377   1.918       .  S
C367        C368   1.402       .  A
C367       Br373   1.932       .  S
C368        C369   1.404       .  A
C369        C370   1.414       .  A
C369       Br378   1.926       .  S
C370       Br374   1.923       .  S
C379        C380   1.423       .  A
C379        C384   1.414       .  A
C380        C381   1.402       .  A
C380       Br392   1.912       .  S
C381        C382   1.391       .  A
C381       Br396   1.929       .  S
C382        C383   1.400       .  A
C382        C385   1.474       .  S
C383        C384   1.400       .  A
C383       Br829   1.898       .  S
C384       Br395   1.935       .  S
C385        C386   1.416       .  A
C385        C390   1.407       .  A
C386        C387   1.389       .  A
C386       Br397   1.920       .  S
C387        C388   1.393       .  A
C387       Br393   1.932       .  S
C388        C389   1.407       .  A
C389        C390   1.404       .  A
C389       Br836   1.926       .  S
C390       Br394   1.925       .  S
Br391       C821   1.905       .  S
Br398       C827   1.925       .  S
C399        C400   1.435       .  A
C399        C404   1.415       .  A
C400        C401   1.412       .  A
C400       Br412   1.889       .  S
C401        C402   1.396       .  A
C401       Br854   1.929       .  S
C402        C403   1.429       .  A
C402        C405   1.542       .  S
C403        C404   1.444       .  A
C403       Br411   1.922       .  S
C404       Br415   1.911       .  S
C405        C406   1.435       .  A
C405        C410   1.423       .  A
C406        C407   1.419       .  A
C406       Br417   1.937       .  S
C407        C408   1.407       .  A
C407       Br413   1.930       .  S
C408        C409   1.404       .  A
C408        N455   1.455       .  S
C409        C410   1.419       .  A
C409       Br856   1.927       .  S
C410       Br852   1.910       .  S
Br414       C848   1.904       .  S
Br416       C839   1.915   1_554  S
Br418       C847   1.931       .  S
C419        C420   1.414       .  A
C419        C862   1.412       .  A
C420        C421   1.430       .  A
C420       Br432   1.927       .  S
C421        C422   1.434       .  A
C421       Br436   1.941       .  S
C422        C423   1.418       .  A
C422        C425   1.547       .  S
C423        C862   1.424       .  A
C423       Br869   1.916       .  S
C424        C857   1.414       .  A
C424        C861   1.429       .  A
C424       Br435   1.923       .  S
C425        C426   1.417       .  A
C425        C430   1.409       .  A
C426        C427   1.422       .  A
C426       Br437   1.919       .  S
C427        C428   1.412       .  A
C427       Br433   1.868       .  S
C428        C429   1.443       .  A
C429        C430   1.434       .  A
C429       Br438   1.880       .  S
C430       Br872   1.924       .  S
Br431       C861   1.918       .  S
Br434       C868   1.932       .  S
C439        C441   1.602       .  S
C439        C443   1.631       .  S
C439        C442   1.646       .  S
C439        C463   2.031       .  S
C440        C444   1.581       .  S
C440        C446   1.607       .  S
C440        C445   1.625       .  S
C440        C462   2.014       .  S
C441        C449   1.360       .  A
C442        C453   1.404       .  A
C443        C457   1.393       .  A
C444        C447   1.372       .  A
C445        C451   1.388       .  A
C446        C454   1.378       .  A
C447        N448   1.340       .  A
C447        H460   1.077       .  S
N448        C826   1.412       .  S
C449        H450   1.068       .  S
C451        N452   1.362       .  A
C451        H461   1.070       .  S
N452        C857   1.477       .  S
C453        H459   1.079       .  S
C454        H456   1.081       .  S
N455        C457   1.367       .  A
C457        H458   1.075       .  S
C462        C464   1.620       .  S
C462        C466   1.611       .  S
C462        C465   1.584       .  S
C463        C467   1.665       .  S
C463        C469   1.614       .  S
C463        C468   1.590       .  S
C464        C472   1.401       .  A
C464        C467   1.519       .  A
C465        C476   1.366       .  A
C465        C468   1.499       .  A
C466        C480   1.374       .  A
C466        C469   1.516       .  A
C467        C470   1.417       .  A
C468        C474   1.370       .  A
C469        C477   1.369       .  A
C470        N471   1.366       .  A
C470        H483   1.069       .  S
N471        C472   1.353       .  A
N471        C757   1.482       .  S
C472        H473   1.073       .  S
C474        N475   1.353       .  A
C474        H484   1.078       .  S
N475        C476   1.352       .  A
N475        C806   1.423       .  S
C476        H482   1.081       .  S
C477        N478   1.358       .  A
C477        H479   1.080       .  S
N478        C480   1.356       .  A
N478        C786   1.431       .  S
C480        H481   1.079       .  S
C485        N503   1.347       .  A
C485        C522   1.483       .  S
C485        C737   1.544       .  S
N486        N503   1.328       .  A
N486        N508   1.331       .  A
N486       Co523   2.063   1_455  S
C487        N512   1.317       .  A
C487        H532   1.069       .  S
C487        C525   1.397       .  S
H488        C529   1.059       .  S
C489        N513   1.324       .  A
C489        H518   1.073   1_545  S
Co490       N508   2.201   1_545  S
Co490       N498   1.932       .  S
Co490       N530   1.906       .  S
Co490       N506   2.285       .  S
Co490      Cl534   2.410   1_455  S
N491        C529   1.404       .  A
N491        N498   1.309       .  A
N491       Co492   2.334   1_455  S
Co492       N495   2.087       .  S
Co492       N512   1.922   1_655  S
Co492       N499   2.108       .  S
Co492      Cl534   2.469       .  S
N494        N501   1.311       .  A
N494        N524   1.355       .  A
N494       Co527   2.195       .  S
N495        N513   1.341       .  A
N495        N531   1.312       .  A
N496        C525   1.385       .  A
N496        N506   1.351       .  A
H497        C522   1.064   1_545  S
N498        N519   1.312       .  A
N499        N517   1.316       .  A
N499        N504   1.321       .  A
C500        N504   1.352       .  A
C500        C528   1.438       .  S
C500        C817   1.480       .  S
N501        C516   1.320       .  A
N501       Co523   1.996       .  S
C502        N530   1.335       .  A
C502        H536   1.082       .  S
C502        C505   1.442   1_545  S
C505        N526   1.361       .  A
C505        C546   1.480       .  S
N506        N512   1.311       .  A
N507        C533   1.369       .  A
N507        N509   1.313       .  A
N507       Co523   2.181       .  S
N508        C522   1.363       .  A
N509        N537   1.306       .  A
N509       Co527   1.998       .  S
H510        C533   1.069       .  S
H511        C528   1.081   1_565  S
N513       Co527   2.094   1_545  S
N514        N526   1.329       .  A
N514        N530   1.324   1_565  A
N514       Co523   2.043   1_455  S
C515        N519   1.321       .  A
C515        C529   1.537       .  S
C515        C866   1.579       .  S
C516        H520   1.070       .  S
C516        C535   1.446       .  S
N517        C528   1.329       .  A
N517       Co527   1.997   1_545  S
C521        N537   1.329       .  A
C521        C533   1.491       .  S
C521        C717   1.515       .  S
Co523      Cl534   2.447   1_565  S
N524        C535   1.388       .  A
C525        C697   1.528       .  S
Co527      Cl534   2.424   1_565  S
C535        C837   1.562       .  S
C538        N556   1.363       .  A
C538        C575   1.425       .  S
C538        C677   1.494       .  S
N539        N556   1.339       .  A
N539        N561   1.335       .  A
N539       Co576   2.187   1_455  S
C540        N565   1.343       .  A
C540        H585   1.047       .  S
C540        C578   1.433       .  S
H541        C582   1.076       .  S
C542        N566   1.375       .  A
C542        H571   1.060       .  S
C542        C546   1.424       .  S
Co543       N561   2.117   1_545  S
Co543       N551   2.189       .  S
Co543       N559   2.035       .  S
Co543      Cl587   2.525       .  S
N544        C582   1.347       .  A
N544        N551   1.331       .  A
N544       Co545   2.124       .  S
Co545       N548   2.152       .  S
Co545       N565   2.062       .  S
Co545       N552   2.200   1_455  S
Co545      Cl587   2.330       .  S
C546        N584   1.339   1_565  A
N547        N554   1.323       .  A
N547        N577   1.336       .  A
N547       Co580   2.219       .  S
N548        N566   1.313   1_545  A
N548        N584   1.338       .  A
N549        C578   1.325       .  A
N549        N559   1.315       .  A
H550        C575   1.080   1_545  S
N551        N572   1.325       .  A
N552        N570   1.334       .  A
N552        N557   1.355       .  A
C553        N557   1.375       .  A
C553        C581   1.512       .  S
C553        C766   1.616       .  S
N554        C569   1.328       .  A
N554       Co576   2.049       .  S
C555        N583   1.340   1_655  A
C555        H589   1.067   1_655  S
C555        C558   1.414   1_556  S
C558        N579   1.338   1_544  A
N559        N565   1.299       .  A
N560        C586   1.344       .  A
N560        N562   1.304       .  A
N560       Co576   2.171       .  S
N561        C575   1.332       .  A
N562        N590   1.334       .  A
N562       Co580   2.056       .  S
H564        C581   1.076   1_565  S
N566       Co580   2.156   1_455  S
N567        N579   1.314       .  A
N567        N583   1.321   1_665  A
C568        N572   1.355       .  A
C568        C582   1.456       .  S
C568        C797   1.489       .  S
C569        H573   1.070       .  S
C569        C588   1.451       .  S
N570        C581   1.374       .  A
N570       Co580   2.244   1_545  S
C574        N590   1.351       .  A
C574        C586   1.460       .  S
C574        C666   1.523       .  S
Co576      Cl587   2.541   1_665  S
N577        C588   1.377       .  A
C578        C637   1.476       .  S
Co580      Cl587   2.326   1_665  S
C588        C777   1.513       .  S
C591        C593   1.639       .  S
C591        C595   1.599       .  S
C591        C594   1.624       .  S
C592        C596   1.603       .  S
C592        C598   1.612       .  S
C592        C597   1.610       .  S
C592        C614   2.015       .  S
C593        C601   1.385       .  A
C593        C596   1.513       .  A
C594        C605   1.382       .  A
C594        C597   1.511       .  A
C595        C609   1.372       .  A
C595        C598   1.498       .  A
C596        C599   1.386       .  A
C597        C603   1.378       .  A
C598        C606   1.376       .  A
C599        N600   1.347       .  A
C599        H612   1.075       .  S
N600        C601   1.353       .  A
N600        C746   1.448       .  S
C601        H602   1.067       .  S
C603        N604   1.356       .  A
C603        H613   1.078       .  S
N604        C605   1.362       .  A
N604        C706   1.445       .  S
C605        H611   1.074       .  S
C606        N607   1.347       .  A
C606        H608   1.063       .  S
N607        C609   1.352       .  A
N607        C726   1.438       .  S
C609        H610   1.066       .  S
C614        C616   1.596       .  S
C614        C618   1.597       .  S
C614        C617   1.597       .  S
C615        C619   1.618       .  S
C615        C621   1.628       .  S
C615        C620   1.604       .  S
C616        C624   1.375       .  A
C616        C619   1.514   1_556  A
C617        C628   1.373       .  A
C617        C620   1.506   1_556  A
C618        C632   1.370       .  A
C618        C621   1.517   1_556  A
C619        C622   1.377       .  A
C620        C626   1.365       .  A
C621        C629   1.378       .  A
C622        N623   1.347       .  A
C622        H635   1.069       .  S
N623        C624   1.342   1_554  A
N623        C686   1.432       .  S
C624        H625   1.075       .  S
C626        N627   1.357       .  A
C626        H636   1.074       .  S
N627        C628   1.353   1_554  A
N627        C646   1.429       .  S
C628        H634   1.078       .  S
C629        N630   1.353       .  A
C629        H631   1.066       .  S
N630        C632   1.338   1_554  A
N630        C657   1.435       .  S
C632        H633   1.073       .  S
C637        C638   1.399       .  A
C638        C639   1.397       .  A
C638       Br650   1.902       .  S
C639       Br654   1.922       .  S
C640        C641   1.434       .  A
C640        C643   1.516       .  S
C641        C642   1.416       .  A
C641       Br649   1.947   1_554  S
C642       Br653   1.936       .  S
C643        C644   1.421       .  A
C643        C648   1.440   1_554  A
C644        C645   1.393       .  A
C645        C646   1.395       .  A
C645       Br651   1.934       .  S
C646        C647   1.399   1_554  A
C647        C648   1.413       .  A
C647       Br656   1.929       .  S
C648       Br652   1.943       .  S
C657        C658   1.397       .  A
C657        C662   1.405   1_554  A
C658        C659   1.406       .  A
C659        C660   1.427       .  A
C660        C661   1.406   1_554  A
C660        C663   1.519       .  S
C661        C662   1.402       .  A
C661       Br669   1.901       .  S
C662       Br673   1.925       .  S
C663        C664   1.424       .  A
C663        C668   1.410       .  A
C664       Br675   1.951       .  S
C665        C666   1.411       .  A
C665       Br671   1.908       .  S
C667        C668   1.415       .  A
C667       Br676   1.914       .  S
C668       Br672   1.903   1_554  S
C677        C682   1.410       .  A
C678        C679   1.416   1_556  A
C678       Br690   1.928       .  S
C679        C680   1.406       .  A
C679       Br694   1.935   1_554  S
C680        C683   1.506       .  S
C681        C682   1.402       .  A
C681       Br689   1.921       .  S
C682       Br693   1.910       .  S
C683        C684   1.421       .  A
C683        C688   1.420       .  A
C684        C685   1.398       .  A
C684       Br695   1.919   1_554  S
C685        C686   1.395       .  A
C685       Br691   1.931   1_554  S
C686        C687   1.407       .  A
C687        C688   1.414       .  A
C697        C698   1.400       .  A
C697        C702   1.438       .  A
C698        C699   1.400       .  A
C698       Br710   1.900       .  S
C699        C700   1.400       .  A
C699       Br714   1.891       .  S
C700        C701   1.411       .  A
C700        C703   1.509       .  S
C701        C702   1.423       .  A
C701       Br709   1.932       .  S
C702       Br713   1.922       .  S
C703        C704   1.417       .  A
C703        C708   1.416       .  A
C704        C705   1.418       .  A
C704       Br715   1.927       .  S
C705        C706   1.409       .  A
C705       Br711   1.924       .  S
C706        C707   1.406       .  A
C707        C708   1.408       .  A
C707       Br716   1.930       .  S
C708       Br712   1.921       .  S
C717        C718   1.410       .  A
C717        C722   1.412       .  A
C718        C719   1.389       .  A
C718       Br730   1.919       .  S
C719        C720   1.417       .  A
C719       Br734   1.944       .  S
C720        C721   1.442       .  A
C720        C723   1.532       .  S
C721        C722   1.434       .  A
C721       Br729   1.929       .  S
C722       Br733   1.923       .  S
C723        C724   1.429       .  A
C723        C728   1.430       .  A
C724        C725   1.418       .  A
C724       Br735   1.914       .  S
C725        C726   1.404       .  A
C725       Br731   1.930       .  S
C726        C727   1.390       .  A
C727        C728   1.399       .  A
C727       Br736   1.931       .  S
C728       Br732   1.906       .  S
C737        C738   1.431       .  A
C737        C742   1.428       .  A
C738        C739   1.424       .  A
C738       Br750   1.919       .  S
C739        C740   1.416       .  A
C739       Br754   1.939       .  S
C740        C741   1.420       .  A
C740        C743   1.535       .  S
C741        C742   1.423       .  A
C741       Br749   1.931       .  S
C742       Br753   1.930       .  S
C743        C744   1.422       .  A
C743        C748   1.430       .  A
C744        C745   1.408       .  A
C744       Br755   1.903       .  S
C745        C746   1.398       .  A
C745       Br751   1.932       .  S
C746        C747   1.409       .  A
C747        C748   1.424       .  A
C747       Br756   1.927       .  S
C748       Br752   1.933       .  S
C757        C758   1.408       .  A
C757        C762   1.417       .  A
C758        C759   1.431       .  A
C758       Br770   1.931       .  S
C759        C760   1.435       .  A
C759       Br774   1.911       .  S
C760        C761   1.442       .  A
C760        C763   1.582       .  S
C761        C762   1.442       .  A
C761       Br769   1.944       .  S
C762       Br773   1.925       .  S
C763        C764   1.422       .  A
C763        C768   1.432       .  A
C764        C765   1.443       .  A
C764       Br775   1.954       .  S
C765        C766   1.445       .  A
C765       Br771   1.888       .  S
C766        C767   1.436       .  A
C767        C768   1.450       .  A
C767       Br776   1.904       .  S
C768       Br772   1.938       .  S
C777        C778   1.405       .  A
C777        C782   1.435       .  A
C778        C779   1.396       .  A
C778       Br790   1.894       .  S
C779        C780   1.400       .  A
C779       Br794   1.923       .  S
C780        C781   1.406       .  A
C780        C783   1.483       .  S
C781        C782   1.415       .  A
C781       Br789   1.941       .  S
C782       Br793   1.927       .  S
C783        C784   1.415       .  A
C783        C788   1.411       .  A
C784        C785   1.407       .  A
C784       Br795   1.931       .  S
C785        C786   1.404       .  A
C785       Br791   1.924       .  S
C786        C787   1.406       .  A
C787        C788   1.399       .  A
C787       Br796   1.930       .  S
C788       Br792   1.926       .  S
C797        C798   1.396       .  A
C797        C802   1.421       .  A
C798        C799   1.404       .  A
C798       Br810   1.938       .  S
C799        C800   1.426       .  A
C799       Br814   1.937       .  S
C800        C801   1.413       .  A
C800        C803   1.502       .  S
C801        C802   1.418       .  A
C801       Br809   1.927       .  S
C802       Br813   1.924       .  S
C803        C804   1.405       .  A
C803        C808   1.426       .  A
C804        C805   1.381       .  A
C804       Br815   1.900       .  S
C805        C806   1.398       .  A
C805       Br811   1.935       .  S
C806        C807   1.402       .  A
C807        C808   1.416       .  A
C807       Br816   1.927       .  S
C808       Br812   1.919       .  S
C817        C818   1.422       .  A
C817        C822   1.416       .  A
C818        C819   1.404       .  A
C818       Br830   1.921       .  S
C819        C820   1.395       .  A
C819       Br834   1.931       .  S
C820        C821   1.399       .  A
C820        C823   1.470       .  S
C821        C822   1.394       .  A
C822       Br833   1.933       .  S
C823        C824   1.414       .  A
C823        C828   1.406       .  A
C824        C825   1.385       .  A
C824       Br835   1.913       .  S
C825        C826   1.391       .  A
C825       Br831   1.934       .  S
C826        C827   1.408       .  A
C827        C828   1.403       .  A
C828       Br832   1.926       .  S
C837        C838   1.430       .  A
C837        C842   1.416       .  A
C838        C839   1.408       .  A
C838       Br850   1.887       .  S
C839        C840   1.394       .  A
C840        C841   1.428       .  A
C840        C843   1.549       .  S
C841        C842   1.448       .  A
C841       Br849   1.913       .  S
C842       Br853   1.906       .  S
C843        C844   1.437       .  A
C843        C848   1.429       .  A
C844        C845   1.421       .  A
C844       Br855   1.938       .  S
C845        C846   1.405       .  A
C845       Br851   1.930       .  S
C846        C847   1.401       .  A
C847        C848   1.421       .  A
C857        C858   1.415       .  A
C858        C859   1.433       .  A
C858       Br870   1.927       .  S
C859        C860   1.440       .  A
C859       Br874   1.949       .  S
C860        C861   1.421       .  A
C860        C863   1.561       .  S
C862       Br873   1.923       .  S
C863        C864   1.433       .  A
C863        C868   1.399       .  A
C864        C865   1.449       .  A
C864       Br875   1.912       .  S
C865        C866   1.422       .  A
C865       Br871   1.909       .  S
C866        C867   1.439       .  A
C867        C868   1.420       .  A
C867       Br876   1.882       .  S
