geometry optimzed in LAMMPS
_audit_creation_date              2020-11-30 
_audit_creation_method            'lammps2cif' 
_symmetry_space_group_name_H-M    'P1' 
_symmetry_Int_Tables_number       1 
_symmetry_cell_setting            triclinic 
loop_ 
_symmetry_equiv_pos_as_xyz 
  x,y,z 
_cell_length_a                    39.38096413 
_cell_length_b                    39.88689338633802 
_cell_length_c                    69.10647452325685 
_cell_angle_alpha                 89.39070502316834 
_cell_angle_beta                  90.21620558855493 
_cell_angle_gamma                 90.65878086087362 
loop_ 
_atom_site_label 
_atom_site_type_symbol 
_atom_site_fract_x 
_atom_site_fract_y 
_atom_site_fract_z 
_atom_site_charge 
N1          N  0.38400659  0.30152583  0.37892627    -0.36600
N2          N  0.38640182  0.25144940  0.34881886    -0.57200
N3          N  0.38692522  0.20177244  0.37970157    -0.36600
N4          N  0.38477054  0.25195020  0.40904688    -0.57200
C5          C  0.37638814  0.31941016  0.36281102     0.27000
C6          C  0.37363850  0.31936868  0.39433796     0.27000
C7          C  0.37970403  0.18309839  0.36398610     0.27000
C8          C  0.37773635  0.18355977  0.39549681     0.27000
C9          C  0.39591512  0.27902557  0.33851444     0.35600
C10         C  0.39698078  0.22439034  0.33893436     0.35600
C11         C  0.39196353  0.27935516  0.41952144     0.35600
C12         C  0.39372432  0.22535352  0.41994424     0.35600
C13         C  0.36044914  0.34879876  0.36795316    -0.21900
C14         C  0.35831193  0.34859131  0.38787791    -0.21900
C15         C  0.36514359  0.15282457  0.36979370    -0.21900
C16         C  0.36369399  0.15319234  0.38972059    -0.21900
C17         C  0.41205781  0.26946505  0.32169362    -0.23000
C18         C  0.41269418  0.23476929  0.32194656    -0.23000
C19         C  0.40596291  0.27024956  0.43722696    -0.23000
C20         C  0.40702955  0.23574986  0.43750668    -0.23000
C21         C  0.38906449  0.31239680  0.34418417    -0.18300
C22         C  0.38193598  0.31173436  0.41387846    -0.18300
C23         C  0.38584465  0.19220582  0.41481671    -0.18300
C24         C  0.39130481  0.19069190  0.34508535    -0.18300
H25         H  0.35254629  0.36890338  0.35836844     0.14600
H26         H  0.34831071  0.36851056  0.39662904     0.14600
H27         H  0.35776750  0.13208949  0.36065285     0.14600
H28         H  0.35480933  0.13281787  0.39892463     0.14600
H29         H  0.42226097  0.28574067  0.31046086     0.12900
H30         H  0.42351019  0.21903356  0.31095419     0.12900
H31         H  0.41337656  0.28664237  0.44892368     0.12900
H32         H  0.41540051  0.22011150  0.44945600     0.12900
H33         H  0.40048771  0.28131468  0.37939898     0.26100
H34         H  0.40235114  0.22314380  0.37972201     0.26100
N35         N  0.14332539  0.30429240  0.37521595    -0.36600
N36         N  0.12776368  0.25406092  0.34659333    -0.57200
N37         N  0.14115405  0.20319849  0.37604564    -0.36600
N38         N  0.15662197  0.25352802  0.40419952    -0.57200
C39         C  0.14348925  0.32252435  0.35860111     0.27000
C40         C  0.16046452  0.32230013  0.38863489     0.27000
C41         C  0.14117928  0.18508573  0.35964043     0.27000
C42         C  0.15681147  0.18463672  0.38983783     0.27000
C43         C  0.11449118  0.28129075  0.33765660     0.35600
C44         C  0.11429416  0.22676856  0.33787014     0.35600
C45         C  0.15827432  0.28074533  0.41557652     0.35600
C46         C  0.15651655  0.22645563  0.41606451     0.35600
C47         C  0.16126149  0.35229679  0.36140764    -0.21900
C48         C  0.17203777  0.35213953  0.38037741    -0.21900
C49         C  0.15707594  0.15472514  0.36299193    -0.21900
C50         C  0.16707151  0.15447756  0.38205295    -0.21900
C51         C  0.09256994  0.27125431  0.32302688    -0.23000
C52         C  0.09258596  0.23661042  0.32310063    -0.23000
C53         C  0.15910900  0.27098738  0.43489095    -0.23000
C54         C  0.15800111  0.23644986  0.43519790    -0.23000
C55         C  0.12413578  0.31479089  0.34191593    -0.18300
C56         C  0.16321574  0.31377114  0.40850467    -0.18300
C57         C  0.15997348  0.19326014  0.40955309    -0.18300
C58         C  0.12303347  0.19334674  0.34264227    -0.18300
H59         H  0.16507300  0.37249301  0.35102925     0.14600
H60         H  0.18593771  0.37215967  0.38743710     0.14600
H61         H  0.16021930  0.13445654  0.35288531     0.14600
H62         H  0.17969755  0.13403093  0.38943982     0.14600
H63         H  0.07851316  0.28720164  0.31317024     0.12900
H64         H  0.07845401  0.22053695  0.31336772     0.12900
H65         H  0.16159664  0.28701000  0.44737083     0.12900
H66         H  0.15955236  0.22052210  0.44794174     0.12900
H67         H  0.12815340  0.28325189  0.37794449     0.26100
H68         H  0.12708892  0.22471632  0.37831318     0.26100
C69         C  0.21122845  0.42519056  0.45434529     0.42400
N70         N  0.22034023  0.46628221  0.47365727     0.01300
C71         C  0.37084035  0.05947741  0.47792027    -0.06500
H72         H  0.38515813  0.43270534  0.48969582     0.06800
C73         C  0.30894911  0.44312824  0.54907912    -0.06900
Co74       Co  0.28551962  0.00204360  0.46321988     0.74200
N75         N  0.34284082  0.46405399  0.48168541    -0.26100
Co76       Co  0.34135572  0.00086050  0.50241124     0.74100
C77         C  0.33743092  0.42270678  0.54336176     0.43000
N78         N  0.23466263  0.46958456  0.53130004     0.01000
N79         N  0.33422192  0.46512633  0.52425616     0.01100
N80         N  0.33382186  0.06051962  0.45279587    -0.46900
H81         H  0.25956953  0.43747026  0.43698115     0.06800
N82         N  0.32198055  0.46445752  0.46667065     0.01300
N83         N  0.33887815  0.03849693  0.52309803     0.01100
C84         C  0.34875956  0.07953223  0.54220982     0.42700
N85         N  0.21240944  0.46848658  0.51704781    -0.25500
C86         C  0.24469823  0.06333001  0.44733992    -0.06400
N87         N  0.19842568  0.44162865  0.46972630    -0.46600
N88         N  0.36243175  0.06107048  0.52791394    -0.46900
C89         C  0.21318924  0.08022473  0.45245993     0.42500
N90         N  0.32511844  0.03729462  0.46570687     0.01300
N91         N  0.21435802  0.04215670  0.51525255    -0.25500
N92         N  0.24655057  0.46672326  0.46176200    -0.26000
N93         N  0.23785026  0.04279052  0.52881864     0.01000
H94         H  0.17107557  0.07377915  0.50974416     0.06900
H95         H  0.29597666  0.07430807  0.55595045     0.06900
N96         N  0.34644951  0.03623075  0.48049795    -0.26100
N97         N  0.30845136  0.46819108  0.53616044    -0.25700
N98         N  0.22204300  0.03975700  0.47249349     0.01300
C99         C  0.35509120  0.42338183  0.46167707     0.42700
C100        C  0.19032934  0.44312115  0.52073159    -0.07000
N101        N  0.31121121  0.04090974  0.53356058    -0.25700
H102        H  0.29113738  0.43934278  0.56079078     0.06900
N103        N  0.32843265  0.44027733  0.45429867    -0.46900
H104        H  0.16823186  0.43716257  0.51205308     0.06900
C105        C  0.20805515  0.08611062  0.53504190     0.42600
C106        C  0.24264393  0.44228443  0.44889751    -0.06400
Co107      Co  0.21609674  0.00400264  0.49449135     0.73800
N108        N  0.22960748  0.44590792  0.54443684    -0.46600
C109        C  0.36273557  0.07501087  0.45941150     0.42800
N110        N  0.20055119  0.06406883  0.46815608    -0.46600
Co111      Co  0.27281096  0.00547239  0.53266091     0.73900
C112        C  0.31453507  0.06676201  0.54543059    -0.07000
C113        C  0.36466041  0.43876350  0.47985438    -0.06500
N114        N  0.24841196  0.03910419  0.46072610    -0.26000
N115        N  0.35235971  0.43798075  0.52797743    -0.46800
H116        H  0.39161109  0.06469874  0.48775464     0.06800
C117        C  0.19374963  0.06854082  0.51804665    -0.06900
Cl118      Cl  0.27892123  0.00304255  0.49812101    -0.49900
C119        C  0.20208568  0.42796896  0.53911386     0.42600
H120        H  0.26139362  0.06776848  0.43516769     0.06800
N121        N  0.23539442  0.06857914  0.54036733    -0.46600
N122        N  0.37429297  0.29813700  0.62456075    -0.36600
N123        N  0.38353098  0.24845261  0.59456859    -0.57200
N124        N  0.39717794  0.20022698  0.62472438    -0.36600
N125        N  0.38756404  0.24847143  0.65409344    -0.57200
C126        C  0.37740341  0.31746678  0.60846566     0.27000
C127        C  0.38271039  0.31747887  0.63988785     0.27000
C128        C  0.40709136  0.18380864  0.60877424     0.27000
C129        C  0.40998664  0.18378656  0.64025205     0.27000
C130        C  0.36885349  0.27307456  0.58409336     0.35600
C131        C  0.37913809  0.21991758  0.58448430     0.35600
C132        C  0.37666120  0.27368644  0.66510783     0.35600
C133        C  0.38723536  0.22079770  0.66535967     0.35600
C134        C  0.38715865  0.34969114  0.61365777    -0.21900
C135        C  0.39132589  0.34946558  0.63341071    -0.21900
C136        C  0.42714601  0.15688542  0.61415280    -0.21900
C137        C  0.42904256  0.15690190  0.63409629    -0.21900
C138        C  0.35587149  0.26038798  0.56695995    -0.23000
C139        C  0.36169591  0.22645938  0.56741642    -0.23000
C140        C  0.36891740  0.26199821  0.68355779    -0.23000
C141        C  0.37563381  0.22821695  0.68371133    -0.23000
C142        C  0.36931014  0.30706363  0.58946277    -0.18300
C143        C  0.38042399  0.30748431  0.65959398    -0.18300
C144        C  0.40100778  0.19017771  0.65964373    -0.18300
C145        C  0.39234182  0.18860459  0.59030492    -0.18300
H146        H  0.39092643  0.37129870  0.60430665     0.14600
H147        H  0.39892879  0.37078452  0.64202214     0.14600
H148        H  0.43750079  0.13807523  0.60474139     0.14600
H149        H  0.44152376  0.13830533  0.64305864     0.14600
H150        H  0.34337948  0.27403338  0.55539861     0.12900
H151        H  0.35452661  0.20886430  0.55627461     0.12900
H152        H  0.36113131  0.27664339  0.69583261     0.12900
H153        H  0.37372991  0.21144725  0.69608461     0.12900
H154        H  0.36340506  0.27424370  0.62511588     0.26100
H155        H  0.37761950  0.21751126  0.62508019     0.26100
N156        N  0.14165509  0.19930507  0.61865934    -0.36600
N157        N  0.12407300  0.24757300  0.64734791    -0.57200
N158        N  0.14146927  0.30068337  0.61995645    -0.36600
N159        N  0.15903881  0.25247954  0.59106496    -0.57200
C160        C  0.12451402  0.17944229  0.63139660     0.27000
C161        C  0.14321721  0.18263147  0.60173162     0.27000
C162        C  0.12348710  0.31762039  0.63322624     0.27000
C163        C  0.14204343  0.31959881  0.60355253     0.27000
C164        C  0.12119613  0.21964252  0.65850488     0.35600
C165        C  0.12165188  0.27407997  0.65924194     0.35600
C166        C  0.17385207  0.22611096  0.58261911     0.35600
C167        C  0.17343337  0.28033889  0.58325957     0.35600
C168        C  0.11518142  0.14974210  0.62243941    -0.21900
C169        C  0.12673581  0.15186923  0.60369561    -0.21900
C170        C  0.11239437  0.34758199  0.62514565    -0.21900
C171        C  0.12390663  0.34871333  0.60637667    -0.21900
C172        C  0.11689242  0.22840956  0.67768089    -0.23000
C173        C  0.11729850  0.26296625  0.67816144    -0.23000
C174        C  0.19802982  0.23718926  0.56940703    -0.23000
C175        C  0.19777285  0.27171960  0.56982399    -0.23000
C176        C  0.11866964  0.18671452  0.65115240    -0.18300
C177        C  0.16323497  0.19254610  0.58559249    -0.18300
C178        C  0.16223336  0.31305866  0.58712064    -0.18300
C179        C  0.11869978  0.30772440  0.65278247    -0.18300
H180        H  0.10186988  0.12847274  0.62879239     0.14600
H181        H  0.12440366  0.13244207  0.59293959     0.14600
H182        H  0.09794363  0.36690986  0.63213103     0.14600
H183        H  0.12036165  0.36917286  0.59618187     0.14600
H184        H  0.11280496  0.21169581  0.68991223     0.12900
H185        H  0.11340997  0.27815278  0.69083179     0.12900
H186        H  0.21360515  0.22201486  0.56015315     0.12900
H187        H  0.21309343  0.28851105  0.56097356     0.12900
H188        H  0.15544428  0.22090456  0.62200056     0.26100
H189        H  0.15628664  0.27971855  0.62277332     0.26100
C190        C  0.43129309  0.08243295  0.29536501     0.42400
N191        N  0.46438182  0.06590033  0.27289157     0.01300
C192        C  0.45588063  0.42117012  0.21838281    -0.06500
H193        H  0.48156972  0.39399556  0.28735996     0.06800
C194        C  0.09062826  0.45959038  0.28728394    -0.06900
Co195      Co  0.44133620  0.50209186  0.25467627     0.74200
N196        N  0.47031655  0.44119379  0.27352142    -0.26100
Co197      Co  0.00671090  0.44428218  0.25162371     0.74100
C198        C  0.07959537  0.42576814  0.29359486     0.42600
N199        N  0.06279538  0.04755937  0.27419742     0.01000
N200        N  0.04461341  0.44468847  0.27245938     0.01100
N201        N  0.41453832  0.45902435  0.22287275    -0.46900
H202        H  0.39747625  0.03503996  0.29284723     0.06800
N203        N  0.44551978  0.46296980  0.27546874     0.01300
N204        N  0.04537061  0.44838926  0.23058569     0.01100
C205        C  0.08426670  0.43838362  0.20966256     0.42700
N206        N  0.03802484  0.06949189  0.27245857    -0.25500
C207        C  0.41132228  0.04476240  0.22130118    -0.06400
N208        N  0.45875019  0.09094821  0.28480219    -0.46600
N209        N  0.05472082  0.42632551  0.21732574    -0.46900
C210        C  0.41916404  0.07603757  0.21125877     0.42500
N211        N  0.44120737  0.46550016  0.23380353     0.01300
N212        N  0.03968945  0.06760180  0.23003825    -0.25500
N213        N  0.44238392  0.04084285  0.27504599    -0.26000
N214        N  0.06492154  0.04618074  0.23197132     0.01000
H215        H  0.03321683  0.11061621  0.21094771     0.06900
H216        H  0.11596795  0.48387427  0.21905249     0.06900
N217        N  0.46606671  0.44391420  0.23159054    -0.26100
N218        N  0.06699290  0.46946680  0.27420482    -0.25700
N219        N  0.46041137  0.06382955  0.23078610     0.01300
C220        C  0.43528769  0.42400462  0.29656020     0.42700
C221        C  0.04228142  0.09336122  0.28567277    -0.07000
N222        N  0.06789381  0.47296815  0.23236815    -0.25700
H223        H  0.11403876  0.47283169  0.29053675     0.06900
N224        N  0.42317109  0.45304658  0.28887651    -0.46900
H225        H  0.02684355  0.11544767  0.28707895     0.06900
C226        C  0.08068832  0.07745788  0.20795068     0.42600
C227        C  0.42006180  0.04916419  0.28891742    -0.06400
Co228      Co  0.00049447  0.06727096  0.25115590     0.73800
N229        N  0.08521681  0.05624842  0.28777642    -0.46600
C230        C  0.42153710  0.43166113  0.21258659     0.42800
N231        N  0.44998616  0.08676356  0.21790367    -0.46600
Co232      Co  0.06621333  0.50909270  0.25348668     0.73900
C233        C  0.09298440  0.46881390  0.21982626    -0.07000
C234        C  0.46624441  0.41628249  0.28638202    -0.06500
N235        N  0.43777750  0.03934040  0.23311776    -0.26000
N236        N  0.05112530  0.41857529  0.28372450    -0.46800
H237        H  0.46960535  0.39891934  0.21449464     0.06800
C238        C  0.04763446  0.08886311  0.21527444    -0.06900
Cl239      Cl  0.00376519  0.50571095  0.25268067    -0.49900
C240        C  0.07318476  0.08457958  0.29587191     0.42600
H241        H  0.38823767  0.02984454  0.22084714     0.06800
N242        N  0.08950719  0.05120874  0.21920098    -0.46600
C243        C  0.42102487  0.32056229  0.96013661     0.42400
N244        N  0.46396683  0.31127334  0.97861643     0.01300
C245        C  0.06737565  0.17187916  0.96784405    -0.06500
H246        H  0.43688439  0.14425340  0.97528875     0.06800
C247        C  0.44340760  0.20048892  0.04350943    -0.06900
Co248      Co  0.00307165  0.25308936  0.96298286     0.74200
N249        N  0.46731329  0.18954075  0.97386776    -0.26100
Co250      Co  0.00457796  0.18550951  0.99502356     0.74100
C251        C  0.42464833  0.17259220  0.03569538     0.42600
N252        N  0.46656024  0.27893434  0.03362592     0.01000
N253        N  0.46704272  0.18355903  0.01713320     0.01100
N254        N  0.06582037  0.21860468  0.94929477    -0.46900
H255        H  0.43605477  0.27955552  0.93905044     0.06800
N256        N  0.46668955  0.21588574  0.96221535     0.01300
N257        N  0.04268030  0.18484812  0.01644105     0.01100
C258        C  0.08639865  0.17587342  0.03418406     0.42700
N259        N  0.46581677  0.30557314  0.02225834    -0.25500
C260        C  0.06363091  0.29811459  0.95199556    -0.06400
N261        N  0.43732795  0.33123813  0.97637311    -0.46600
N262        N  0.06983987  0.16540046  0.01804149    -0.46900
C263        C  0.08115836  0.32687344  0.96005744     0.42500
N264        N  0.04092352  0.21789193  0.96195237     0.01300
N265        N  0.04005058  0.30668739  0.02167990    -0.25500
N266        N  0.46560607  0.28895216  0.96470342    -0.26000
N267        N  0.04048526  0.27970257  0.03280140     0.01000
H268        H  0.07184090  0.35116350  0.02103295     0.06900
H269        H  0.07200460  0.21644148  0.05562695     0.06900
N270        N  0.04133525  0.19115614  0.97330571    -0.26100
N271        N  0.46846599  0.20592380  0.03103295    -0.25700
N272        N  0.03928843  0.31346205  0.97844249     0.01300
C273        C  0.42437199  0.18589214  0.95286386     0.42700
C274        C  0.44071954  0.32546542  0.02841573    -0.07000
N275        N  0.04117045  0.20690900  0.03046653    -0.25700
H276        H  0.43866178  0.21462135  0.05643899     0.06900
N277        N  0.44136463  0.21480855  0.94974153    -0.46900
H278        H  0.43655620  0.35051619  0.02295050     0.06900
C279        C  0.08394035  0.30774312  0.04262863     0.42600
C280        C  0.44017152  0.29334574  0.95225946    -0.06400
Co281      Co  0.00217548  0.31023794  0.00026859     0.73800
N282        N  0.44265167  0.27890712  0.04687940    -0.46600
C283        C  0.08381220  0.19052982  0.95181703     0.42800
N284        N  0.06470313  0.33550386  0.97644919    -0.46600
Co285      Co  0.00404754  0.24248882  0.03210455     0.73900
C286        C  0.06711250  0.20254107  0.04255286    -0.07000
C287        C  0.44170689  0.16871698  0.96893027    -0.06500
N288        N  0.03867994  0.29126017  0.96442778    -0.26000
N289        N  0.44052110  0.16274178  0.01927486    -0.46800
H290        H  0.07280768  0.14730289  0.97372638     0.06800
C291        C  0.06649699  0.32649341  0.02695312    -0.06900
Cl292      Cl  0.00341355  0.24784146  0.99758122    -0.49900
C293        C  0.42484249  0.30724737  0.04492048     0.42600
H294        H  0.06891968  0.28453027  0.93890796     0.06800
N295        N  0.06619623  0.27922618  0.04492122    -0.46600
N296        N  0.20051616  0.39294975  0.87883970    -0.36600
N297        N  0.25259201  0.40376328  0.84984006    -0.57200
N298        N  0.30336483  0.38823821  0.87854292    -0.36600
N299        N  0.25191336  0.37802511  0.90731355    -0.57200
C300        C  0.18212894  0.39211694  0.86227127     0.27000
C301        C  0.18169184  0.37782228  0.89284658     0.27000
C302        C  0.32094907  0.38562783  0.86191007     0.27000
C303        C  0.32074868  0.37128043  0.89231757     0.27000
C304        C  0.22566344  0.41670126  0.84039714     0.35600
C305        C  0.28059093  0.41478458  0.84041432     0.35600
C306        C  0.22475543  0.37970592  0.91904667     0.35600
C307        C  0.27957706  0.37732532  0.91885726     0.35600
C308        C  0.15109833  0.37646330  0.86578581    -0.21900
C309        C  0.15085622  0.36734599  0.88509429    -0.21900
C310        C  0.34974526  0.36662161  0.86507777    -0.21900
C311        C  0.34961169  0.35752031  0.88433458    -0.21900
C312        C  0.23653227  0.43624059  0.82484162    -0.23000
C313        C  0.27152227  0.43509578  0.82488994    -0.23000
C314        C  0.23519087  0.38050119  0.93822621    -0.23000
C315        C  0.27007999  0.37896260  0.93810024    -0.23000
C316        C  0.19165813  0.40783511  0.84459956    -0.18300
C317        C  0.19098734  0.37523031  0.91264289    -0.18300
C318        C  0.31246446  0.37039805  0.91216079    -0.18300
C319        C  0.31361934  0.40347253  0.84470252    -0.18300
H320        H  0.13057945  0.37250708  0.85556805     0.14600
H321        H  0.13012970  0.35492304  0.89263175     0.14600
H322        H  0.36928793  0.36076821  0.85471372     0.14600
H323        H  0.36896432  0.34312968  0.89171623     0.14600
H324        H  0.22087607  0.44917979  0.81431392     0.12900
H325        H  0.28827401  0.44689709  0.81439940     0.12900
H326        H  0.21926576  0.38057532  0.95095577     0.12900
H327        H  0.28644825  0.37765408  0.95069529     0.12900
H328        H  0.22286231  0.40662595  0.88094664     0.26100
H329        H  0.28339709  0.40456427  0.88091624     0.26100
N330        N  0.30410849  0.12741760  0.86958230    -0.36600
N331        N  0.25278709  0.14839056  0.89594535    -0.57200
N332        N  0.20221938  0.13375748  0.86678870    -0.36600
N333        N  0.25424245  0.11342551  0.84036217    -0.57200
C334        C  0.32084637  0.12683668  0.88667319     0.27000
C335        C  0.32241272  0.10943524  0.85700468     0.27000
C336        C  0.18340835  0.13552550  0.88306564     0.27000
C337        C  0.18382224  0.11622110  0.85371176     0.27000
C338        C  0.28053635  0.16078708  0.90491522     0.35600
C339        C  0.22596268  0.16436191  0.90333136     0.35600
C340        C  0.28244493  0.11167405  0.82939446     0.35600
C341        C  0.22745999  0.11364464  0.82812972     0.35600
C342        C  0.34988999  0.10773929  0.88505299    -0.21900
C343        C  0.35098443  0.09687626  0.86622177    -0.21900
C344        C  0.15268736  0.11888460  0.88034731    -0.21900
C345        C  0.15294419  0.10667005  0.86177962    -0.21900
C346        C  0.27146181  0.18514431  0.91802930    -0.23000
C347        C  0.23660788  0.18735160  0.91706216    -0.23000
C348        C  0.27363391  0.11080948  0.80997254    -0.23000
C349        C  0.23866474  0.11205256  0.80916426    -0.23000
C350        C  0.31319576  0.14761428  0.90244072    -0.18300
C351        C  0.31540467  0.10704840  0.83704347    -0.18300
C352        C  0.19328451  0.11109345  0.83424898    -0.18300
C353        C  0.19217151  0.15475495  0.89945132    -0.18300
H354        H  0.36908716  0.10349482  0.89603068     0.14600
H355        H  0.37100217  0.08225512  0.85989262     0.14600
H356        H  0.13195317  0.11649904  0.89052267     0.14600
H357        H  0.13246998  0.09290960  0.85487622     0.14600
H358        H  0.28804604  0.19901450  0.92765797     0.12900
H359        H  0.22085055  0.20316787  0.92584844     0.12900
H360        H  0.29052462  0.10835402  0.79776352     0.12900
H361        H  0.22322806  0.11075743  0.79619772     0.12900
H362        H  0.28446755  0.14353300  0.86586240     0.26100
H363        H  0.22436416  0.14743432  0.86395884     0.26100
C364        C  0.42152152  0.41678160  0.70614330     0.42400
N365        N  0.43677208  0.45807145  0.72360492     0.01300
C366        C  0.08117019  0.05707944  0.71485519    -0.06500
H367        H  0.10172887  0.42430655  0.72642059     0.06800
C368        C  0.04928545  0.44275162  0.79346967    -0.06900
Co369      Co  0.99796419  0.49333157  0.70747306     0.74200
N370        N  0.05905465  0.45672377  0.72128198    -0.26100
Co371      Co  0.06202484  0.49543482  0.74180441     0.74100
C372        C  0.08390022  0.43282214  0.78888102     0.42600
N373        N  0.46310369  0.46163908  0.77989261     0.01000
N374        N  0.06303478  0.46131173  0.76501145     0.01100
N375        N  0.04033548  0.05314204  0.69208754    -0.46900
H376        H  0.46541849  0.42572351  0.68485932     0.06800
N377        N  0.03495913  0.45670181  0.70796678     0.01300
N378        N  0.06351814  0.03316802  0.76227086     0.01100
C379        C  0.08542369  0.06787010  0.78252905     0.42700
N380        N  0.43918324  0.46109512  0.76651344    -0.25500
C381        C  0.45719806  0.05523609  0.69569501    -0.06400
N382        N  0.41327774  0.43411815  0.72205875    -0.46600
N383        N  0.09027136  0.05271691  0.76544607    -0.46900
C384        C  0.42990959  0.07416770  0.70414309     0.42500
N385        N  0.03649492  0.02968680  0.70569351     0.01300
N386        N  0.44094074  0.03393419  0.76416762    -0.25500
N387        N  0.45973547  0.45712395  0.70975657    -0.26000
N388        N  0.46387317  0.03424973  0.77809198     0.01000
H389        H  0.39255146  0.05734686  0.76076697     0.06900
H390        H  0.04220485  0.05802622  0.80418172     0.06900
N391        N  0.06038833  0.03101884  0.71905545    -0.26100
N392        N  0.03915577  0.46147924  0.77838224    -0.25700
N393        N  0.43921894  0.03142569  0.72191983     0.01300
C394        C  0.06597870  0.41481677  0.70032553     0.42700
C395        C  0.41422750  0.44045443  0.77238813    -0.07000
N396        N  0.04097744  0.03413615  0.77638197    -0.25700
H397        H  0.03654054  0.44151176  0.80729837     0.06900
N398        N  0.03831358  0.43249903  0.69519217    -0.46900
H399        H  0.38937699  0.43900817  0.76570875     0.06900
C400        C  0.42568435  0.06927921  0.78706175     0.42600
C401        C  0.45213161  0.43178437  0.69798607    -0.06400
Co402      Co  0.43844258  0.49604013  0.74398610     0.73800
N403        N  0.45528351  0.44255810  0.79508565    -0.46600
C404        C  0.06819692  0.07170225  0.69662676     0.42800
N405        N  0.41959022  0.05808069  0.72034016    -0.46600
Co406      Co  0.00181565  0.49799109  0.77852742     0.73900
C407        C  0.05260046  0.05555484  0.78980975    -0.07000
C408        C  0.07967664  0.43079066  0.71786014    -0.06500
N409        N  0.46169810  0.02961728  0.70789070    -0.26000
N410        N  0.09026609  0.44478433  0.77085013    -0.46800
H411        H  0.10197382  0.06536532  0.72391600     0.06800
C412        C  0.41675982  0.05597156  0.76816761    -0.06900
Cl413      Cl  0.00006972  0.49564438  0.74303073    -0.49900
C414        C  0.42456166  0.42827629  0.79155145     0.42600
H415        H  0.47055279  0.05914492  0.68229871     0.06800
N416        N  0.45520875  0.05444802  0.79236411    -0.46600
N417        N  0.25429348  0.14052937  0.09265345    -0.36600
N418        N  0.20104852  0.13193681  0.12092760    -0.57200
N419        N  0.25172906  0.12285517  0.15124468    -0.36600
N420        N  0.30501749  0.13128414  0.12222276    -0.57200
C421        C  0.22697109  0.13613333  0.08108893     0.27000
C422        C  0.28208476  0.13550083  0.08174244     0.27000
C423        C  0.22317578  0.11025949  0.15983840     0.27000
C424        C  0.27923760  0.11020449  0.16067685     0.27000
C425        C  0.18310813  0.14486111  0.10594645     0.35600
C426        C  0.18152632  0.13470191  0.13685252     0.35600
C427        C  0.32468162  0.14346106  0.10766335     0.35600
C428        C  0.32348653  0.13374466  0.13868933     0.35600
C429        C  0.23741190  0.12802322  0.06259634    -0.21900
C430        C  0.27234101  0.12753600  0.06302063    -0.21900
C431        C  0.23274372  0.08941954  0.17505912    -0.21900
C432        C  0.26796774  0.08942670  0.17560355    -0.21900
C433        C  0.15209685  0.15632113  0.11236130    -0.23000
C434        C  0.15115036  0.15004308  0.13200536    -0.23000
C435        C  0.35577093  0.15408599  0.11490159    -0.23000
C436        C  0.35500265  0.14801516  0.13457800    -0.23000
C437        C  0.19335940  0.14324982  0.08639969    -0.18300
C438        C  0.31570477  0.14204238  0.08780715    -0.18300
C439        C  0.31401653  0.11851520  0.15658034    -0.18300
C440        C  0.18896943  0.11889108  0.15481737    -0.18300
H441        H  0.22156207  0.12398436  0.04998592     0.14600
H442        H  0.28871487  0.12308237  0.05079120     0.14600
H443        H  0.21608422  0.07588506  0.18489251     0.14600
H444        H  0.28350430  0.07586795  0.18591802     0.14600
H445        H  0.13196585  0.16717250  0.10371452     0.12900
H446        H  0.12998850  0.15486572  0.14148701     0.12900
H447        H  0.37704957  0.16423532  0.10678605     0.12900
H448        H  0.37573656  0.15234853  0.14459995     0.12900
H449        H  0.25407634  0.15128710  0.10630520     0.26100
H450        H  0.25242964  0.14166318  0.14068531     0.26100
N451        N  0.25439422  0.34339588  0.10232050    -0.36600
N452        N  0.20081227  0.35990460  0.12952965    -0.57200
N453        N  0.25187053  0.37687521  0.15830197    -0.36600
N454        N  0.30541287  0.35764639  0.13153428    -0.57200
C455        C  0.22698059  0.33011155  0.09329672     0.27000
C456        C  0.28217779  0.33002661  0.09414079     0.27000
C457        C  0.22362382  0.38133013  0.16904331     0.27000
C458        C  0.27910230  0.37930149  0.17022058     0.27000
C459        C  0.18220808  0.35642094  0.11318198     0.35600
C460        C  0.18033636  0.37418248  0.14268723     0.35600
C461        C  0.32573269  0.35457040  0.11595441     0.35600
C462        C  0.32484140  0.37127687  0.14559835     0.35600
C463        C  0.23745097  0.30802104  0.07920036    -0.21900
C464        C  0.27238913  0.30808301  0.07968047    -0.21900
C465        C  0.23311525  0.38703746  0.18809586    -0.21900
C466        C  0.26806293  0.38560042  0.18885093    -0.21900
C467        C  0.14963851  0.36816791  0.11603331    -0.23000
C468        C  0.14830224  0.37894670  0.13475467    -0.23000
C469        C  0.35829664  0.36577670  0.12019627    -0.23000
C470        C  0.35781374  0.37616331  0.13900367    -0.23000
C471        C  0.19302170  0.33965155  0.09637900    -0.18300
C472        C  0.31605998  0.33908223  0.09849868    -0.18300
C473        C  0.31363913  0.37919842  0.16442023    -0.18300
C474        C  0.18980453  0.38278643  0.16184877    -0.18300
H475        H  0.22158384  0.29398983  0.06927597     0.14600
H476        H  0.28873195  0.29398809  0.07027961     0.14600
H477        H  0.21666439  0.39235406  0.20016119     0.14600
H478        H  0.28362069  0.38968224  0.20157311     0.14600
H479        H  0.12873105  0.36830058  0.10582528     0.12900
H480        H  0.12617956  0.38925007  0.14164822     0.12900
H481        H  0.38023873  0.36600636  0.11080970     0.12900
H482        H  0.37934343  0.38631303  0.14686508     0.12900
H483        H  0.25428540  0.36368485  0.11165420     0.26100
H484        H  0.25279561  0.37615675  0.14334473     0.26100
C485        C  0.14097227  0.05743875  0.79967598    -0.01900
C486        C  0.11391285  0.07917230  0.79500776     0.07800
C487        C  0.11375280  0.11177959  0.80261051    -0.02000
C488        C  0.14043829  0.12274145  0.81471179    -0.02000
C489        C  0.16649331  0.10046549  0.82017688     0.08000
C490        C  0.16620300  0.06753609  0.81293785    -0.02200
Br491      Br  0.19907077  0.03543166  0.82220575    -0.00700
Br492      Br  0.14416992  0.01376295  0.78807861    -0.00800
Br493      Br  0.14136649  0.16837864  0.82372631    -0.00700
Br494      Br  0.07731560  0.14174832  0.79592127    -0.00700
C495        C  0.34702689  0.06380543  0.81859493    -0.01900
C496        C  0.34356493  0.09745658  0.82403654     0.07800
C497        C  0.36796197  0.12158727  0.81810619    -0.02000
C498        C  0.39562104  0.11208103  0.80658626    -0.02000
C499        C  0.39902184  0.07844385  0.80101582     0.08000
C500        C  0.37454319  0.05433124  0.80705436    -0.02200
Br501      Br  0.37787425  0.00827984  0.79928187    -0.00700
Br502      Br  0.31402025  0.03066259  0.82714051    -0.00800
Br503      Br  0.42824250  0.14524583  0.79779351    -0.00700
Br504      Br  0.36293121  0.16777148  0.82546458    -0.00700
C505        C  0.13574833  0.40211640  0.79959551    -0.01900
C506        C  0.11154580  0.42709882  0.80322125     0.07800
C507        C  0.11503615  0.44709781  0.82003458    -0.02000
C508        C  0.14152222  0.44091176  0.83330009    -0.02000
C509        C  0.16474353  0.41506115  0.82997137     0.08000
C510        C  0.16208212  0.39594919  0.81297618    -0.02200
Br511      Br  0.19416862  0.36077814  0.80822582    -0.00700
Br512      Br  0.13257050  0.37578989  0.77634625    -0.00800
Br513      Br  0.14687065  0.46859299  0.85594508    -0.00700
Br514      Br  0.08596616  0.48492776  0.82475225    -0.00700
C515        C  0.39777220  0.43556383  0.82466495    -0.01900
C516        C  0.39919855  0.41882524  0.80665914     0.07800
C517        C  0.37307874  0.39573314  0.80182296    -0.02000
C518        C  0.34434697  0.39188903  0.81371749    -0.02000
C519        C  0.34207488  0.41005418  0.83100619     0.08000
C520        C  0.36895617  0.43161605  0.83652488    -0.02200
Br521      Br  0.36555675  0.45677953  0.86021783    -0.00700
Br522      Br  0.43429160  0.46435313  0.83363830    -0.00800
Br523      Br  0.30816481  0.36146062  0.80636966    -0.00700
Br524      Br  0.37773268  0.36733976  0.77952254    -0.00700
C525        C  0.14390101  0.18823777  0.04696234    -0.01900
C526        C  0.11871727  0.16404437  0.04244055     0.07800
C527        C  0.12060814  0.13163690  0.05058855    -0.02000
C528        C  0.14548796  0.12454398  0.06471369    -0.02000
C529        C  0.16833465  0.14990553  0.07070151     0.08000
C530        C  0.16829451  0.18139890  0.06129793    -0.02200
Br531      Br  0.20038146  0.21584616  0.06888898    -0.00700
Br532      Br  0.14443941  0.23120824  0.03375037    -0.00800
Br533      Br  0.14773928  0.08050742  0.07636292    -0.00700
Br534      Br  0.08767385  0.09784220  0.04344056    -0.00700
C535        C  0.36666245  0.12358984  0.06874994    -0.01900
C536        C  0.34200370  0.14804902  0.07257580     0.07800
C537        C  0.34133897  0.17773295  0.06127194    -0.02000
C538        C  0.36622336  0.18360185  0.04703229    -0.02000
C539        C  0.39250515  0.16032541  0.04429782     0.08000
C540        C  0.39205367  0.12988911  0.05478196    -0.02200
Br541      Br  0.42799109  0.09820432  0.05115742    -0.00700
Br542      Br  0.36600640  0.08171779  0.08292613    -0.00800
Br543      Br  0.36528263  0.22448930  0.03175909    -0.00700
Br544      Br  0.30754219  0.21139714  0.06604214    -0.00700
C545        C  0.13966999  0.33762329  0.05018664    -0.01900
C546        C  0.11217963  0.31679957  0.05610638     0.07800
C547        C  0.11304766  0.30195688  0.07498615    -0.02000
C548        C  0.14133078  0.30678446  0.08704737    -0.02000
C549        C  0.16674538  0.33007889  0.08182383     0.08000
C550        C  0.16585702  0.34561785  0.06340364    -0.02200
Br551      Br  0.20023970  0.37842390  0.05643518    -0.00700
Br552      Br  0.14362939  0.35346921  0.02381425    -0.00800
Br553      Br  0.14542457  0.28133964  0.11097332    -0.00700
Br554      Br  0.07509154  0.27691558  0.08596958    -0.00700
C555        C  0.34739684  0.34968772  0.06743045    -0.01900
C556        C  0.34314311  0.33062260  0.08447644     0.07800
C557        C  0.36535328  0.30432596  0.08869054    -0.02000
C558        C  0.39338615  0.29862529  0.07667934    -0.02000
C559        C  0.39686100  0.31625201  0.05861614     0.08000
C560        C  0.37248761  0.34111034  0.05390433    -0.02200
Br561      Br  0.37000632  0.36202155  0.02867285    -0.00700
Br562      Br  0.31923011  0.38839510  0.06303275    -0.00800
Br563      Br  0.42715881  0.26803941  0.08679042    -0.00700
Br564      Br  0.35697035  0.27601195  0.11115979    -0.00700
C565        C  0.13960693  0.32027235  0.94724118    -0.01900
C566        C  0.11268451  0.34174753  0.95198934     0.07800
C567        C  0.11350812  0.37538981  0.94554438    -0.02000
C568        C  0.13952962  0.38662146  0.93300239    -0.02000
C569        C  0.16489534  0.36431794  0.92703447     0.08000
C570        C  0.16533158  0.33133224  0.93458782    -0.02200
Br571      Br  0.19995104  0.30043689  0.92666499    -0.00700
Br572      Br  0.14146988  0.27548127  0.95817726    -0.00800
Br573      Br  0.13988231  0.43219153  0.92337026    -0.00700
Br574      Br  0.07799852  0.40550984  0.95291463    -0.00700
C575        C  0.36369370  0.31358530  0.94515545    -0.01900
C576        C  0.39091117  0.33508062  0.95055168     0.07800
C577        C  0.39180809  0.36846371  0.94365106    -0.02000
C578        C  0.36555369  0.38037166  0.93159867    -0.02000
C579        C  0.33860731  0.35882493  0.92619180     0.08000
C580        C  0.33774023  0.32542609  0.93295656    -0.02200
Br581      Br  0.30218430  0.29522213  0.92430016    -0.00700
Br582      Br  0.36214275  0.26733629  0.95386686    -0.00800
Br583      Br  0.36722874  0.42572255  0.92161728    -0.00700
Br584      Br  0.43081271  0.39671787  0.94880108    -0.00700
C585        C  0.11162940  0.19263072  0.91898951    -0.01900
C586        C  0.11159407  0.18078863  0.93850959     0.07800
C587        C  0.13911271  0.16122348  0.94517683    -0.02000
C588        C  0.16453804  0.15142900  0.93220450    -0.02000
C589        C  0.16500098  0.16435580  0.91313579     0.08000
C590        C  0.13918129  0.18595474  0.90683732    -0.02200
Br591      Br  0.14204314  0.20711658  0.88153264    -0.00700
Br592      Br  0.07365749  0.21641745  0.90768250    -0.00800
Br593      Br  0.19817576  0.11934603  0.94044482    -0.00700
Br594      Br  0.14462606  0.15014702  0.97226243    -0.00700
C595        C  0.36780123  0.15690971  0.94775761    -0.01900
C596        C  0.39635827  0.17429265  0.94013915     0.07800
C597        C  0.39697551  0.18309493  0.92020272    -0.02000
C598        C  0.36876207  0.17627546  0.90842857    -0.02000
C599        C  0.34116821  0.15744343  0.91578314     0.08000
C600        C  0.34096318  0.14727386  0.93539730    -0.02200
Br601      Br  0.30417581  0.11971703  0.94530073    -0.00700
Br602      Br  0.36352344  0.14835566  0.97520520    -0.00800
Br603      Br  0.36753745  0.19386301  0.88220612    -0.00700
Br604      Br  0.43686975  0.20281089  0.90809013    -0.00700
C605        C  0.37711128  0.43806718  0.18729828    -0.01900
C606        C  0.39586245  0.41643881  0.19953451     0.07800
C607        C  0.38627819  0.38223597  0.20097865    -0.02000
C608        C  0.35893585  0.36988118  0.18973583    -0.02000
C609        C  0.33987860  0.39199621  0.17805945     0.08000
C610        C  0.34856226  0.42619642  0.17724353    -0.02200
Br611      Br  0.32149914  0.45672436  0.16187248    -0.00700
Br612      Br  0.39122773  0.48397926  0.18328749    -0.00800
Br613      Br  0.34732084  0.32279502  0.19018726    -0.00700
Br614      Br  0.40851545  0.35270568  0.21915580    -0.00700
C615        C  0.12337595  0.44129931  0.18151425    -0.01900
C616        C  0.10797748  0.42167334  0.19627051     0.07800
C617        C  0.11983265  0.38890110  0.19989038    -0.02000
C618        C  0.14666518  0.37604361  0.18874432    -0.02000
C619        C  0.16272826  0.39637670  0.17456458     0.08000
C620        C  0.15136474  0.42927782  0.17129348    -0.02200
Br621      Br  0.17454327  0.45813030  0.15282030    -0.00700
Br622      Br  0.10543572  0.48453967  0.17459385    -0.00800
Br623      Br  0.16200380  0.33084212  0.19308715    -0.00700
Br624      Br  0.10103325  0.36228378  0.22075647    -0.00700
C625        C  0.39608284  0.08052747  0.17752890    -0.01900
C626        C  0.39646152  0.09244138  0.19660446     0.07800
C627        C  0.37071238  0.11459542  0.20230943    -0.02000
C628        C  0.34430421  0.12371027  0.18928886    -0.02000
C629        C  0.34212689  0.10916566  0.17069782     0.08000
C630        C  0.36838837  0.08724306  0.16503285    -0.02200
Br631      Br  0.36576058  0.06425746  0.14062883    -0.00700
Br632      Br  0.43472537  0.05612475  0.16836044    -0.00800
Br633      Br  0.31156211  0.15666197  0.19686934    -0.00700
Br634      Br  0.37200672  0.13275791  0.22797368    -0.00700
C635        C  0.15794019  0.12370773  0.18702228    -0.01900
C636        C  0.15962899  0.11004308  0.16822824     0.07800
C637        C  0.13216522  0.08930462  0.16192774    -0.02000
C638        C  0.10422907  0.08234772  0.17426094    -0.02000
C639        C  0.10459884  0.09308559  0.19359320     0.08000
C640        C  0.13137470  0.11420354  0.19979769    -0.02200
Br641      Br  0.13137813  0.13033022  0.22591684    -0.00700
Br642      Br  0.19117450  0.15664584  0.19511618    -0.00800
Br643      Br  0.06462127  0.05886934  0.16464642    -0.00700
Br644      Br  0.13305501  0.06855596  0.13680370    -0.00700
C645        C  0.11674142  0.10959808  0.68454528    -0.01900
C646        C  0.08143440  0.10150653  0.68507386     0.07800
C647        C  0.05900336  0.12214610  0.67409080    -0.02000
C648        C  0.07109248  0.15098036  0.66419900    -0.02000
C649        C  0.10589752  0.15889335  0.66401975     0.08000
C650        C  0.12866828  0.13817970  0.67417685    -0.02200
Br651      Br  0.17658951  0.14881280  0.67325553    -0.00700
Br652      Br  0.15014094  0.07983181  0.69555555    -0.00800
Br653      Br  0.04007169  0.17959597  0.65004987    -0.00700
Br654      Br  0.01171905  0.11127221  0.67088761    -0.00700
C655        C  0.05789670  0.36293118  0.67999177    -0.01900
C656        C  0.08005564  0.38678704  0.68866704     0.07800
C657        C  0.11541347  0.38434553  0.68525229    -0.02000
C658        C  0.12817669  0.35782000  0.67411996    -0.02000
C659        C  0.10595157  0.33342208  0.66640366     0.08000
C660        C  0.07086201  0.33591931  0.66949650    -0.02200
Br661      Br  0.04038975  0.30285113  0.65837995    -0.00700
Br662      Br  0.00945164  0.36752913  0.68095674    -0.00800
Br663      Br  0.17612934  0.35537791  0.66870105    -0.00700
Br664      Br  0.14639492  0.41940617  0.69331440    -0.00700
C665        C  0.38086675  0.13756873  0.67584157    -0.01900
C666        C  0.40550205  0.16330983  0.67429419     0.07800
C667        C  0.43468202  0.16269966  0.68613707    -0.02000
C668        C  0.44063568  0.13468262  0.69809647    -0.02000
C669        C  0.41834890  0.10688777  0.69733100     0.08000
C670        C  0.38764385  0.10893265  0.68706144    -0.02200
Br671      Br  0.35608697  0.07160238  0.68740832    -0.00700
Br672      Br  0.33811992  0.14149117  0.66243852    -0.00800
Br673      Br  0.47899524  0.13410250  0.71559320    -0.00700
Br674      Br  0.46698849  0.19935598  0.68531256    -0.00700
C675        C  0.36478606  0.36053537  0.67670898    -0.01900
C676        C  0.38651993  0.33281334  0.67494129     0.07800
C677        C  0.41562201  0.33050464  0.68695618    -0.02000
C678        C  0.42301044  0.35610720  0.70010115    -0.02000
C679        C  0.40485796  0.38610537  0.69917687     0.08000
C680        C  0.37497151  0.38800706  0.68803764    -0.02200
Br681      Br  0.34966277  0.42904428  0.68714414    -0.00700
Br682      Br  0.32217422  0.36158938  0.66283623    -0.00800
Br683      Br  0.95702947  0.35100612  0.71986803    -0.00700
Br684      Br  0.94823867  0.29530487  0.68427398    -0.00700
C685        C  0.38905461  0.12841298  0.54766030    -0.01900
C686        C  0.36676058  0.10343509  0.55507389     0.07800
C687        C  0.35760851  0.10421302  0.57480794    -0.02000
C688        C  0.36412191  0.13293807  0.58563592    -0.02000
C689        C  0.38563456  0.15846179  0.57825455     0.08000
C690        C  0.39968481  0.15513810  0.55959550    -0.02200
Br691      Br  0.43255294  0.18763143  0.55025765    -0.00700
Br692      Br  0.40398955  0.12716012  0.52113513    -0.00800
Br693      Br  0.34008736  0.13828901  0.60971427    -0.00700
Br694      Br  0.33881653  0.06517860  0.58800310    -0.00700
C695        C  0.38055431  0.38245172  0.55635798    -0.01900
C696        C  0.34648366  0.38983677  0.55181258     0.07800
C697        C  0.32046693  0.36685830  0.55713790    -0.02000
C698        C  0.32774883  0.33984922  0.56957565    -0.02000
C699        C  0.36166307  0.33318459  0.57468189     0.08000
C700        C  0.38815947  0.35306096  0.56683932    -0.02200
Br701      Br  0.43480089  0.34082085  0.57143591    -0.00700
Br702      Br  0.41663235  0.41385103  0.55015981    -0.00800
Br703      Br  0.29100418  0.31319424  0.58037101    -0.00700
Br704      Br  0.27519350  0.37071140  0.54658739    -0.00700
C705        C  0.16489395  0.16596522  0.55239142    -0.01900
C706        C  0.17480239  0.16603389  0.57207638     0.07800
C707        C  0.19482961  0.13978707  0.57938030    -0.02000
C708        C  0.20200360  0.11214957  0.56779673    -0.02000
C709        C  0.19424412  0.11284642  0.54765078     0.08000
C710        C  0.17637818  0.14058746  0.53996239    -0.02200
Br711      Br  0.16964237  0.14584737  0.51243595    -0.00700
Br712      Br  0.13497600  0.20016446  0.54248617    -0.00800
Br713      Br  0.22010017  0.07283711  0.58080157    -0.00700
Br714      Br  0.21370546  0.14210103  0.60528298    -0.00700
C715        C  0.19006999  0.36945429  0.58218939    -0.01900
C716        C  0.17251470  0.34187480  0.57419694     0.07800
C717        C  0.16343766  0.34293864  0.55436583    -0.02000
C718        C  0.17399941  0.37022103  0.54251081    -0.02000
C719        C  0.18902675  0.39903936  0.55095293     0.08000
C720        C  0.19506908  0.39887718  0.57120931    -0.02200
Br721      Br  0.20756273  0.43934192  0.58486844    -0.00700
Br722      Br  0.20897970  0.36666673  0.60803849    -0.00800
Br723      Br  0.17018417  0.36596731  0.51480296    -0.00700
Br724      Br  0.13547969  0.30779195  0.54343606    -0.00700
C725        C  0.08585452  0.14287318  0.33755348    -0.01900
C726        C  0.11121117  0.16491293  0.33037840     0.07800
C727        C  0.12785137  0.15730160  0.31294128    -0.02000
C728        C  0.11746016  0.12911439  0.30211548    -0.02000
C729        C  0.09126530  0.10785384  0.30901766     0.08000
C730        C  0.07696076  0.11391159  0.32722569    -0.02200
Br731      Br  0.04673542  0.08109889  0.33848952    -0.00700
Br732      Br  0.06257780  0.15276773  0.36135341    -0.00800
Br733      Br  0.13890951  0.11959681  0.27788069    -0.00700
Br734      Br  0.16507919  0.18520982  0.30411966    -0.00700
C735        C  0.09197135  0.36845227  0.33668292    -0.01900
C736        C  0.11324727  0.34343622  0.32913308     0.07800
C737        C  0.12606307  0.34744847  0.31015601    -0.02000
C738        C  0.11648923  0.37538775  0.29868472    -0.02000
C739        C  0.09589927  0.40061416  0.30646749     0.08000
C740        C  0.08457734  0.39740089  0.32566428    -0.02200
Br741      Br  0.05885601  0.43308700  0.33679788    -0.00700
Br742      Br  0.07121390  0.36235695  0.36177976    -0.00800
Br743      Br  0.13094544  0.37886191  0.27213490    -0.00700
Br744      Br  0.15707154  0.31503749  0.29992237    -0.00700
C745        C  0.16322984  0.11234677  0.43910288    -0.01900
C746        C  0.19837120  0.11071209  0.44332705     0.07800
C747        C  0.21960177  0.13816801  0.43824581    -0.02000
C748        C  0.20655491  0.16600071  0.42824269    -0.02000
C749        C  0.17195632  0.16686835  0.42324784     0.08000
C750        C  0.15015317  0.14030174  0.42896934    -0.02200
Br751      Br  0.10268660  0.14168257  0.42196430    -0.00700
Br752      Br  0.13314190  0.07548254  0.44575332    -0.00800
Br753      Br  0.23675481  0.20206530  0.42013264    -0.00700
Br754      Br  0.26674360  0.13861981  0.44507695    -0.00700
C755        C  0.20810033  0.34173833  0.42853549    -0.01900
C756        C  0.17419463  0.34038720  0.42218586     0.07800
C757        C  0.15133734  0.36534047  0.42791406    -0.02000
C758        C  0.16277268  0.39247956  0.43926279    -0.02000
C759        C  0.19712435  0.39446426  0.44513607     0.08000
C760        C  0.21924562  0.36818287  0.44028936    -0.02200
Br761      Br  0.26480931  0.36723989  0.45016144    -0.00700
Br762      Br  0.23988943  0.30831286  0.42013579    -0.00800
Br763      Br  0.13178909  0.42783008  0.44546087    -0.00700
Br764      Br  0.10459169  0.36265406  0.41957698    -0.00700
C765        C  0.38081321  0.15466549  0.31548126    -0.01900
C766        C  0.39997670  0.16182120  0.33230702     0.07800
C767        C  0.42595580  0.13951491  0.33801005    -0.02000
C768        C  0.43243256  0.11074239  0.32710425    -0.02000
C769        C  0.41592682  0.10565272  0.30936081     0.08000
C770        C  0.38942260  0.12715765  0.30377667    -0.02200
Br771      Br  0.36486625  0.11854700  0.28021571    -0.00700
Br772      Br  0.34249663  0.18204786  0.30867245    -0.00800
Br773      Br  0.46223482  0.07670067  0.33691693    -0.00700
Br774      Br  0.45444121  0.14910308  0.36006354    -0.00700
C775        C  0.42664487  0.36249131  0.33776818    -0.01900
C776        C  0.39933777  0.34182343  0.33172000     0.07800
C777        C  0.38086309  0.35096755  0.31494198    -0.02000
C778        C  0.39084046  0.37950334  0.30384872    -0.02000
C779        C  0.41816612  0.40001132  0.31004191     0.08000
C780        C  0.43476477  0.39213314  0.32752879    -0.02200
Br781      Br  0.46828171  0.42277116  0.33769899    -0.00700
Br782      Br  0.45491444  0.34895867  0.35927193    -0.00800
Br783      Br  0.36807615  0.38982276  0.27983600    -0.00700
Br784      Br  0.34225166  0.32424338  0.30712174    -0.00700
C785        C  0.36079015  0.16504266  0.44474077    -0.01900
C786        C  0.38548755  0.16543773  0.42993983     0.07800
C787        C  0.40852094  0.13873738  0.42867459    -0.02000
C788        C  0.40258033  0.10912527  0.43933471    -0.02000
C789        C  0.37530805  0.10749358  0.45232834     0.08000
C790        C  0.35718218  0.13649231  0.45665391    -0.02200
Br791      Br  0.32888602  0.13685578  0.47940754    -0.00700
Br792      Br  0.33038366  0.20206774  0.44801057    -0.00800
Br793      Br  0.43119248  0.07075466  0.43602357    -0.00700
Br794      Br  0.44793423  0.14289728  0.41238116    -0.00700
C795        C  0.40006574  0.36777698  0.42688949    -0.01900
C796        C  0.37976836  0.33848079  0.42872619     0.07800
C797        C  0.35705388  0.33533764  0.44450615    -0.02000
C798        C  0.35384424  0.36193273  0.45750399    -0.02000
C799        C  0.36882306  0.39307302  0.45305568     0.08000
C800        C  0.39330249  0.39569674  0.43840522    -0.02200
Br801      Br  0.41744421  0.43747400  0.43429002    -0.00700
Br802      Br  0.43716542  0.36965877  0.40882492    -0.00800
Br803      Br  0.33045906  0.35584245  0.48182528    -0.00700
Br804      Br  0.32788873  0.29651225  0.44761421    -0.00700
N805        N  0.38390283  0.80153279  0.37890228    -0.36600
N806        N  0.38624712  0.75145222  0.34880060    -0.57200
N807        N  0.38675239  0.70177386  0.37969098    -0.36600
N808        N  0.38464799  0.75195182  0.40903052    -0.57200
C809        C  0.37630177  0.81942400  0.36278584     0.27000
C810        C  0.37352265  0.81936967  0.39431392     0.27000
C811        C  0.37949883  0.68310191  0.36397923     0.27000
C812        C  0.37758191  0.68356627  0.39549205     0.27000
C813        C  0.39579855  0.77901784  0.33849549     0.35600
C814        C  0.39680026  0.72437622  0.33892047     0.35600
C815        C  0.39185841  0.77935984  0.41949770     0.35600
C816        C  0.39361916  0.72535975  0.41992679     0.35600
C817        C  0.36035917  0.84881076  0.36792690    -0.21900
C818        C  0.35819980  0.84859365  0.38785198    -0.21900
C819        C  0.36493003  0.65283635  0.36979607    -0.21900
C820        C  0.36351512  0.65320536  0.38972447    -0.21900
C821        C  0.41194217  0.76943262  0.32168010    -0.23000
C822        C  0.41253614  0.73473504  0.32193570    -0.23000
C823        C  0.40588775  0.77026130  0.43719710    -0.23000
C824        C  0.40695437  0.73576204  0.43748077    -0.23000
C825        C  0.38897961  0.81240258  0.34415876    -0.18300
C826        C  0.38181995  0.81173519  0.41385561    -0.18300
C827        C  0.38572973  0.69221144  0.41480691    -0.18300
C828        C  0.39109171  0.69068108  0.34507406    -0.18300
H829        H  0.35246289  0.86891716  0.35834171     0.14600
H830        H  0.34819052  0.86850939  0.39660280     0.14600
H831        H  0.35753134  0.63210261  0.36065988     0.14600
H832        H  0.35463845  0.63283559  0.39893451     0.14600
H833        H  0.42217404  0.78569329  0.31044874     0.12900
H834        H  0.42334335  0.71898445  0.31094772     0.12900
H835        H  0.41332140  0.78665856  0.44888783     0.12900
H836        H  0.41534478  0.72012829  0.44942761     0.12900
H837        H  0.40037878  0.78131729  0.37937751     0.26100
H838        H  0.40219102  0.72313659  0.37970305     0.26100
N839        N  0.14367533  0.80413395  0.37502777    -0.36600
N840        N  0.12802451  0.75386334  0.34648448    -0.57200
N841        N  0.14125659  0.70304188  0.37603470    -0.36600
N842        N  0.15683866  0.75342785  0.40410206    -0.57200
C843        C  0.14377064  0.82235069  0.35840430     0.27000
C844        C  0.16081596  0.82217108  0.38843340     0.27000
C845        C  0.14134878  0.68490417  0.35964215     0.27000
C846        C  0.15685209  0.68449388  0.38985597     0.27000
C847        C  0.11472666  0.78105930  0.33752289     0.35600
C848        C  0.11451290  0.72653882  0.33781731     0.35600
C849        C  0.15854147  0.78069931  0.41543320     0.35600
C850        C  0.15660718  0.72641220  0.41601403     0.35600
C851        C  0.16150823  0.85214805  0.36119117    -0.21900
C852        C  0.17233638  0.85201531  0.38015542    -0.21900
C853        C  0.15722712  0.65454373  0.36303051    -0.21900
C854        C  0.16713108  0.65431631  0.38210494    -0.21900
C855        C  0.09274030  0.77096524  0.32293832    -0.23000
C856        C  0.09275837  0.73632233  0.32305723    -0.23000
C857        C  0.15928722  0.77103125  0.43476471    -0.23000
C858        C  0.15807177  0.73649671  0.43512997    -0.23000
C859        C  0.12436364  0.81457854  0.34173909    -0.18300
C860        C  0.16355336  0.81369089  0.40831548    -0.18300
C861        C  0.15998115  0.69317241  0.40956094    -0.18300
C862        C  0.12326195  0.69313538  0.34262246    -0.18300
H863        H  0.16525428  0.87234551  0.35080604     0.14600
H864        H  0.18621138  0.87206510  0.38720294     0.14600
H865        H  0.16041106  0.63425810  0.35293977     0.14600
H866        H  0.17972442  0.63387875  0.38951903     0.14600
H867        H  0.07863401  0.78687183  0.31308305     0.12900
H868        H  0.07858134  0.72020900  0.31336700     0.12900
H869        H  0.16177347  0.78710824  0.44722117     0.12900
H870        H  0.15953095  0.72062597  0.44790111     0.12900
H871        H  0.12852038  0.78309225  0.37777930     0.26100
H872        H  0.12719554  0.72457534  0.37826718     0.26100
C873        C  0.21114614  0.92520883  0.45421076     0.42400
N874        N  0.22023649  0.96626926  0.47354962     0.01300
C875        C  0.37092751  0.55950375  0.47795348    -0.06500
H876        H  0.38503510  0.93269882  0.48968007     0.06800
C877        C  0.30880139  0.94311183  0.54902083    -0.06900
Co878      Co  0.28560000  0.50205196  0.46328980     0.74200
N879        N  0.34273633  0.96404780  0.48164026    -0.26100
Co880      Co  0.34148022  0.50087504  0.50246054     0.74100
C881        C  0.33731043  0.92271254  0.54332221     0.43000
N882        N  0.23452952  0.96954174  0.53119870     0.01000
N883        N  0.33408709  0.96510924  0.52420218     0.01100
N884        N  0.33387649  0.56052896  0.45284431    -0.46900
H885        H  0.25953667  0.93747339  0.43689175     0.06800
N886        N  0.32189647  0.96444785  0.46661640     0.01300
N887        N  0.33902331  0.53852011  0.52314832     0.01100
C888        C  0.34890360  0.57957985  0.54224448     0.42700
N889        N  0.21227871  0.96843852  0.51694540    -0.25500
C890        C  0.24475053  0.56332154  0.44740728    -0.06400
N891        N  0.19832083  0.94162554  0.46959442    -0.46600
N892        N  0.36257427  0.56110580  0.52795251    -0.46900
C893        C  0.21323901  0.58021230  0.45252949     0.42500
N894        N  0.32519944  0.53730223  0.46575929     0.01300
N895        N  0.21449660  0.54217859  0.51533725    -0.25500
N896        N  0.24646801  0.96671805  0.46166859    -0.26000
N897        N  0.23798799  0.54282466  0.52890415     0.01000
H898        H  0.17116819  0.57373693  0.50983674     0.06900
H899        H  0.29612576  0.57436311  0.55599125     0.06900
N900        N  0.34654982  0.53624545  0.48054180    -0.26100
N901        N  0.30829957  0.96816290  0.53609472    -0.25700
N902        N  0.22213245  0.53977133  0.47257804     0.01300
C903        C  0.35500559  0.92336369  0.46165142     0.42700
C904        C  0.19023381  0.94303279  0.52061677    -0.07000
N905        N  0.31136218  0.54093893  0.53361574    -0.25700
H906        H  0.29098607  0.93932797  0.56073092     0.06900
N907        N  0.32836221  0.94025838  0.45425333    -0.46900
H908        H  0.16815430  0.93704395  0.51193027     0.06900
C909        C  0.20813940  0.58610316  0.53512911     0.42600
C910        C  0.24257771  0.94229719  0.44879145    -0.06400
Co911      Co  0.21621813  0.50402756  0.49458585     0.73800
N912        N  0.22951017  0.94583574  0.54432040    -0.46600
C913        C  0.36279134  0.57503349  0.45944698     0.42800
N914        N  0.20062486  0.56406962  0.46823703    -0.46600
Co915      Co  0.27295949  0.50550599  0.53273926     0.73900
C916        C  0.31468381  0.56680684  0.54547354    -0.07000
C917        C  0.36455349  0.93875414  0.47982708    -0.06500
N918        N  0.24848876  0.53911320  0.46080217    -0.26000
N919        N  0.35224658  0.93798472  0.52793989    -0.46800
H920        H  0.39170641  0.56473761  0.48778013     0.06800
C921        C  0.19385781  0.56853280  0.51813266    -0.06900
Cl922      Cl  0.27904056  0.50306312  0.49819465    -0.49900
C923        C  0.20201102  0.92787031  0.53899450     0.42600
H924        H  0.26142767  0.56774638  0.43522543     0.06800
N925        N  0.23549742  0.56860036  0.54046086    -0.46600
N926        N  0.37427532  0.79820525  0.62457902    -0.36600
N927        N  0.38354883  0.74854688  0.59458486    -0.57200
N928        N  0.39718445  0.70030564  0.62474100    -0.36600
N929        N  0.38753193  0.74851388  0.65411202    -0.57200
C930        C  0.37736598  0.81755125  0.60848837     0.27000
C931        C  0.38267493  0.81754140  0.63991137     0.27000
C932        C  0.40713968  0.68391640  0.60878999     0.27000
C933        C  0.40998653  0.68385795  0.64026791     0.27000
C934        C  0.36887338  0.77316515  0.58410545     0.35600
C935        C  0.37918455  0.72001280  0.58449595     0.35600
C936        C  0.37665037  0.77373125  0.66513041     0.35600
C937        C  0.38721018  0.72083918  0.66537836     0.35600
C938        C  0.38708464  0.84978131  0.61368961    -0.21900
C939        C  0.39125302  0.84954302  0.63344265    -0.21900
C940        C  0.42721617  0.65700869  0.61416735    -0.21900
C941        C  0.42908078  0.65700134  0.63411130    -0.21900
C942        C  0.35592448  0.76047675  0.56696421    -0.23000
C943        C  0.36176422  0.72655078  0.56742063    -0.23000
C944        C  0.36893099  0.76204460  0.68358435    -0.23000
C945        C  0.37563296  0.72826010  0.68373444    -0.23000
C946        C  0.36929607  0.80715259  0.58948071    -0.18300
C947        C  0.38041013  0.80752910  0.65961579    -0.18300
C948        C  0.40097739  0.69021981  0.65965743    -0.18300
C949        C  0.39239823  0.68870572  0.59031925    -0.18300
H950        H  0.39082922  0.87140045  0.60434452     0.14600
H951        H  0.39883218  0.87086266  0.64206003     0.14600
H952        H  0.43760388  0.63822017  0.60475347     0.14600
H953        H  0.44156920  0.63840776  0.64307230     0.14600
H954        H  0.34344377  0.77411846  0.55539744     0.12900
H955        H  0.35462179  0.70895550  0.55627359     0.12900
H956        H  0.36116678  0.77669198  0.69586292     0.12900
H957        H  0.37374250  0.71149076  0.69610850     0.12900
H958        H  0.36341574  0.77429989  0.62512858     0.26100
H959        H  0.37760389  0.71756650  0.62509326     0.26100
N960        N  0.14162481  0.69932725  0.61868429    -0.36600
N961        N  0.12403829  0.74760882  0.64734938    -0.57200
N962        N  0.14148370  0.80070914  0.61994439    -0.36600
N963        N  0.15905703  0.75248034  0.59107886    -0.57200
C964        C  0.12446324  0.67947595  0.63141846     0.27000
C965        C  0.14318845  0.68264972  0.60175901     0.27000
C966        C  0.12349519  0.81765568  0.63320704     0.27000
C967        C  0.14206981  0.81961524  0.60353596     0.27000
C968        C  0.12114409  0.71968909  0.65851526     0.35600
C969        C  0.12162352  0.77412844  0.65923387     0.35600
C970        C  0.17387052  0.72609924  0.58264769     0.35600
C971        C  0.17345066  0.78032716  0.58325856     0.35600
C972        C  0.11511647  0.64978053  0.62246096    -0.21900
C973        C  0.12668337  0.65189890  0.60371980    -0.21900
C974        C  0.11241558  0.84761634  0.62511871    -0.21900
C975        C  0.12393906  0.84873565  0.60635182    -0.21900
C976        C  0.11683417  0.72847550  0.67768718    -0.23000
C977        C  0.11725511  0.76303319  0.67815624    -0.23000
C978        C  0.19805193  0.73715706  0.56943176    -0.23000
C979        C  0.19779085  0.77168825  0.56982814    -0.23000
C980        C  0.11861634  0.68675448  0.65117244    -0.18300
C981        C  0.16323687  0.69254228  0.58562940    -0.18300
C982        C  0.16224593  0.81305062  0.58710102    -0.18300
C983        C  0.11868656  0.80776916  0.65276361    -0.18300
H984        H  0.10178861  0.62851948  0.62881195     0.14600
H985        H  0.12434784  0.63247097  0.59296443     0.14600
H986        H  0.09796173  0.86694967  0.63209703     0.14600
H987        H  0.12039865  0.86918817  0.59615179     0.14600
H988        H  0.11273425  0.71177451  0.68992294     0.12900
H989        H  0.11336671  0.77823330  0.69082112     0.12900
H990        H  0.21362598  0.72196845  0.56018500     0.12900
H991        H  0.21310830  0.78846668  0.56096780     0.12900
H992        H  0.15543186  0.72091552  0.62202690     0.26100
H993        H  0.15628810  0.77973824  0.62276917     0.26100
C994        C  0.43101988  0.58236990  0.29536000     0.42400
N995        N  0.46415575  0.56582862  0.27290766     0.01300
C996        C  0.45588699  0.92121295  0.21840934    -0.06500
H997        H  0.48158444  0.89397944  0.28727882     0.06800
C998        C  0.09027600  0.95959383  0.28745177    -0.06900
Co999      Co  0.44146371  0.00219261  0.25466117     0.74200
N1000       N  0.47040483  0.94125107  0.27350515    -0.26100
Co1001     Co  0.00666711  0.94438763  0.25154922     0.74100
C1002       C  0.07920410  0.92573274  0.29368424     0.42600
N1003       N  0.06316493  0.54746233  0.27402834     0.01000
N1004       N  0.04437411  0.94475823  0.27249891     0.01100
N1005       N  0.41456125  0.95908103  0.22289924    -0.46900
H1006       H  0.39724704  0.53494150  0.29284587     0.06800
N1007       N  0.44561362  0.96303324  0.27545509     0.01300
N1008       N  0.04557876  0.94854292  0.23062749     0.01100
C1009       C  0.08515779  0.93829685  0.21012174     0.42700
N1010       N  0.03841634  0.56943461  0.27231916    -0.25500
C1011       C  0.41121299  0.54459201  0.22130121    -0.06400
N1012       N  0.45848617  0.59088677  0.28480540    -0.46600
N1013       N  0.05530365  0.92639171  0.21749666    -0.46900
C1014       C  0.41908124  0.57584422  0.21124994     0.42500
N1015       N  0.44126955  0.96559629  0.23379315     0.01300
N1016       N  0.03986122  0.56748352  0.22991720    -0.25500
N1017       N  0.44217645  0.54075594  0.27506047    -0.26000
N1018       N  0.06506430  0.54603181  0.23185330     0.01000
H1019       H  0.03367402  0.61072760  0.21096589     0.06900
H1020       H  0.11674815  0.98361451  0.21991806     0.06900
N1021       N  0.46611235  0.94399249  0.23158336    -0.26100
N1022       N  0.06672187  0.96954663  0.27434283    -0.25700
N1023       N  0.46026807  0.56370263  0.23080750     0.01300
C1024       C  0.43530026  0.92397360  0.29648608     0.42700
C1025       C  0.04286589  0.59339880  0.28545837    -0.07000
N1026       N  0.06809378  0.97308391  0.23257376    -0.25700
H1027       H  0.11368896  0.97279324  0.29075357     0.06900
N1028       N  0.42322368  0.95306055  0.28883194    -0.46900
H1029       H  0.02747715  0.61551714  0.28687342     0.06900
C1030       C  0.08111780  0.57751512  0.20799941     0.42600
C1031       C  0.41982574  0.54907961  0.28891938    -0.06400
Co1032     Co  0.00072331  0.56719596  0.25108867     0.73800
N1033       N  0.08574143  0.55619294  0.28751716    -0.46600
C1034       C  0.42152412  0.93167822  0.21263681     0.42800
N1035       N  0.44987360  0.58660623  0.21790511    -0.46600
Co1036     Co  0.06606873  0.00922773  0.25364515     0.73900
C1037       C  0.09363081  0.96871932  0.22036505    -0.07000
C1038       C  0.46628521  0.91628696  0.28632782    -0.06500
N1039       N  0.43764347  0.53920777  0.23313605    -0.26000
N1040       N  0.05081668  0.91858557  0.28372995    -0.46800
H1041       H  0.46959612  0.89894282  0.21454025     0.06800
C1042       C  0.04797296  0.58886581  0.21523617    -0.06900
Cl1043     Cl  0.00362680  0.00579414  0.25269057    -0.49900
C1044       C  0.07386557  0.58462744  0.29556510     0.42600
H1045       H  0.38814122  0.52965514  0.22083125     0.06800
N1046       N  0.08979159  0.55116240  0.21919081    -0.46600
C1047       C  0.42105960  0.82067407  0.96011623     0.42400
N1048       N  0.46402679  0.81140104  0.97858048     0.01300
C1049       C  0.06739746  0.67176699  0.96789807    -0.06500
H1050       H  0.43688419  0.64439851  0.97528949     0.06800
C1051       C  0.44360426  0.70050437  0.04351502    -0.06900
Co1052     Co  0.00307600  0.75295453  0.96300990     0.74200
N1053       N  0.46733579  0.68966710  0.97383980    -0.26100
Co1054     Co  0.00457339  0.68541603  0.99507591     0.74100
C1055       C  0.42487808  0.67256882  0.03572111     0.42600
N1056       N  0.46661896  0.77901822  0.03356926     0.01000
N1057       N  0.46714608  0.68365328  0.01709643     0.01100
N1058       N  0.06583360  0.71847811  0.94933836    -0.46900
H1059       H  0.43607368  0.77966889  0.93902669     0.06800
N1060       N  0.46669977  0.71601294  0.96218829     0.01300
N1061       N  0.04267476  0.68479279  0.01650438     0.01100
C1062       C  0.08638641  0.67588647  0.03426573     0.42700
N1063       N  0.46586983  0.80567280  0.02221340    -0.25500
C1064       C  0.06358801  0.79800017  0.95199401    -0.06400
N1065       N  0.43737553  0.83135423  0.97634796    -0.46600
N1066       N  0.06987289  0.66539411  0.01811067    -0.46900
C1067       C  0.08110087  0.82678238  0.96003620     0.42500
N1068       N  0.04093846  0.71777033  0.96199689     0.01300
N1069       N  0.04007650  0.80663268  0.02169801    -0.25500
N1070       N  0.46565590  0.78908131  0.96466657    -0.26000
N1071       N  0.04050486  0.77967057  0.03284025     0.01000
H1072       H  0.07190354  0.85108880  0.02101429     0.06900
H1073       H  0.07193607  0.71646317  0.05568528     0.06900
N1074       N  0.04135187  0.69104314  0.97335763    -0.26100
N1075       N  0.46858334  0.70601049  0.03099820    -0.25700
N1076       N  0.03927312  0.81335650  0.97844761     0.01300
C1077       C  0.42433414  0.68604289  0.95287584     0.42700
C1078       C  0.44070574  0.82551009  0.02834739    -0.07000
N1079       N  0.04112893  0.70685674  0.03052673    -0.25700
H1080       H  0.43888816  0.71461673  0.05645613     0.06900
N1081       N  0.44133700  0.71495051  0.94973860    -0.46900
H1082       H  0.43646881  0.85054246  0.02287083     0.06900
C1083       C  0.08398682  0.80772898  0.04265341     0.42600
C1084       C  0.44020800  0.79346801  0.95223092    -0.06400
Co1085     Co  0.00217045  0.81015266  0.00027926     0.73800
N1086       N  0.44265559  0.77892518  0.04678972    -0.46600
C1087       C  0.08383125  0.69040881  0.95186366     0.42800
N1088       N  0.06466566  0.83541721  0.97643349    -0.46600
Co1089     Co  0.00403404  0.74244681  0.03214313     0.73900
C1090       C  0.06705349  0.70252183  0.04262488    -0.07000
C1091       C  0.44170332  0.66885865  0.96892586    -0.06500
N1092       N  0.03866398  0.79113851  0.96444162    -0.26000
N1093       N  0.44068213  0.66277866  0.01926899    -0.46800
H1094       H  0.07283346  0.64719464  0.97378463     0.06800
C1095       C  0.06653995  0.82643854  0.02695737    -0.06900
Cl1096     Cl  0.00341039  0.74775207  0.99761314    -0.49900
C1097       C  0.42480932  0.80724021  0.04482668     0.42600
H1098       H  0.06886650  0.78440679  0.93890811     0.06800
N1099       N  0.06621761  0.77922324  0.04496665    -0.46600
N1100       N  0.20046530  0.89284455  0.87880843    -0.36600
N1101       N  0.25255538  0.90368927  0.84982486    -0.57200
N1102       N  0.30330974  0.88814404  0.87853765    -0.36600
N1103       N  0.25184634  0.87789488  0.90729191    -0.57200
C1104       C  0.18208307  0.89204535  0.86223766     0.27000
C1105       C  0.18163275  0.87770087  0.89280581     0.27000
C1106       C  0.32090843  0.88554593  0.86190916     0.27000
C1107       C  0.32069264  0.87119500  0.89231632     0.27000
C1108       C  0.22563617  0.91665081  0.84038361     0.35600
C1109       C  0.28056338  0.91471653  0.84041001     0.35600
C1110       C  0.22467806  0.87956944  0.91901657     0.35600
C1111       C  0.27949894  0.87721650  0.91884440     0.35600
C1112       C  0.15104627  0.87639579  0.86574105    -0.21900
C1113       C  0.15079606  0.86724646  0.88504506    -0.21900
C1114       C  0.34971175  0.86655281  0.86508341    -0.21900
C1115       C  0.34956905  0.85745046  0.88434034    -0.21900
C1116       C  0.23652059  0.93620980  0.82483971    -0.23000
C1117       C  0.27150988  0.93505153  0.82489308    -0.23000
C1118       C  0.23509468  0.88037722  0.93819932    -0.23000
C1119       C  0.26998427  0.87885716  0.93808423    -0.23000
C1120       C  0.19162473  0.90779036  0.84457554    -0.18300
C1121       C  0.19091803  0.87508813  0.91260296    -0.18300
C1122       C  0.31239707  0.87031570  0.91215788    -0.18300
C1123       C  0.31358864  0.90339953  0.84470306    -0.18300
H1124       H  0.13052825  0.87246481  0.85551950     0.14600
H1125       H  0.13006223  0.85482136  0.89257485     0.14600
H1126       H  0.36926730  0.86071342  0.85472448     0.14600
H1127       H  0.36892496  0.84307186  0.89172714     0.14600
H1128       H  0.22087501  0.94917132  0.81431604     0.12900
H1129       H  0.28827147  0.94686464  0.81441196     0.12900
H1130       H  0.21915775  0.88045289  0.95092405     0.12900
H1131       H  0.28634204  0.87756611  0.95068427     0.12900
H1132       H  0.22281293  0.90651313  0.88092536     0.26100
H1133       H  0.28333539  0.90446368  0.88090753     0.26100
N1134       N  0.30415359  0.62742344  0.86959364    -0.36600
N1135       N  0.25279591  0.64831516  0.89596830    -0.57200
N1136       N  0.20225175  0.63366656  0.86680770    -0.36600
N1137       N  0.25430651  0.61340437  0.84037263    -0.57200
C1138       C  0.32088993  0.62684872  0.88668463     0.27000
C1139       C  0.32248601  0.60947831  0.85701107     0.27000
C1140       C  0.18342439  0.63542022  0.88307975     0.27000
C1141       C  0.18387109  0.61613465  0.85372180     0.27000
C1142       C  0.28053363  0.66072689  0.90494277     0.35600
C1143       C  0.22595606  0.66424911  0.90336462     0.35600
C1144       C  0.28250963  0.61167277  0.82940376     0.35600
C1145       C  0.22752293  0.61359324  0.82814109     0.35600
C1146       C  0.34996299  0.60779598  0.88505903    -0.21900
C1147       C  0.35107589  0.59695254  0.86622473    -0.21900
C1148       C  0.15270867  0.61877760  0.88034841    -0.21900
C1149       C  0.15298654  0.60657387  0.86177868    -0.21900
C1150       C  0.27143503  0.68505198  0.91807130    -0.23000
C1151       C  0.23657948  0.68722518  0.91710791    -0.23000
C1152       C  0.27369735  0.61078708  0.80998251    -0.23000
C1153       C  0.23872760  0.61200001  0.80917545    -0.23000
C1154       C  0.31321010  0.64760036  0.90245819    -0.18300
C1155       C  0.31547600  0.60708386  0.83705068    -0.18300
C1156       C  0.19334847  0.61102239  0.83425972    -0.18300
C1157       C  0.19217121  0.65463107  0.89947543    -0.18300
H1158       H  0.36916531  0.60356866  0.89603601     0.14600
H1159       H  0.37111510  0.58236413  0.85989222     0.14600
H1160       H  0.13196537  0.61638172  0.89051708     0.14600
H1161       H  0.13252097  0.59281424  0.85486650     0.14600
H1162       H  0.28800590  0.69892535  0.92770574     0.12900
H1163       H  0.22080790  0.70301410  0.92590239     0.12900
H1164       H  0.29058878  0.60833939  0.79777317     0.12900
H1165       H  0.22329137  0.61068477  0.79620945     0.12900
H1166       H  0.28448840  0.64351371  0.86587985     0.26100
H1167       H  0.22439547  0.64734957  0.86398628     0.26100
C1168       C  0.42153058  0.91681497  0.70615863     0.42400
N1169       N  0.43678508  0.95809938  0.72362247     0.01300
C1170       C  0.08120141  0.55706270  0.71486448    -0.06500
H1171       H  0.10169492  0.92433354  0.72639495     0.06800
C1172       C  0.04926407  0.94276889  0.79344643    -0.06900
Co1173     Co  0.99792929  0.99335781  0.70745145     0.74200
N1174       N  0.05901904  0.95675117  0.72125996    -0.26100
Co1175     Co  0.06198808  0.99545750  0.74178608     0.74100
C1176       C  0.08388287  0.93285274  0.78885725     0.42600
N1177       N  0.46310489  0.96163119  0.77991333     0.01000
N1178       N  0.06300501  0.96133081  0.76498768     0.01100
N1179       N  0.04035693  0.55312021  0.69210368    -0.46900
H1180       H  0.46541215  0.92577501  0.68486708     0.06800
N1181       N  0.03492307  0.95673078  0.70794476     0.01300
N1182       N  0.06355999  0.53314763  0.76228451     0.01100
C1183       C  0.08548347  0.56783968  0.78254031     0.42700
N1184       N  0.43918797  0.96109770  0.76653182    -0.25500
C1185       C  0.45714687  0.55518576  0.69565364    -0.06400
N1186       N  0.41329372  0.93414326  0.72207807    -0.46600
N1187       N  0.09032088  0.55268663  0.76545701    -0.46900
C1188       C  0.42985100  0.57411728  0.70409571     0.42500
N1189       N  0.03652893  0.52966107  0.70570890     0.01300
N1190       N  0.44091242  0.53393248  0.76413973    -0.25500
N1191       N  0.45974146  0.95716039  0.70977024    -0.26000
N1192       N  0.46385319  0.53426307  0.77805942     0.01000
H1193       H  0.39252980  0.55736071  0.76073779     0.06900
H1194       H  0.04226901  0.55801135  0.80419752     0.06900
N1195       N  0.06042706  0.53099578  0.71906810    -0.26100
N1196       N  0.03912647  0.96149048  0.77835825    -0.25700
N1197       N  0.43918506  0.53139839  0.72188903     0.01300
C1198       C  0.06593779  0.91484544  0.70030322     0.42700
C1199       C  0.41421945  0.94047075  0.77240541    -0.07000
N1200       N  0.04102318  0.53412340  0.77639755    -0.25700
H1201       H  0.03651748  0.94152205  0.80727444     0.06900
N1202       N  0.03827417  0.93252834  0.69516991    -0.46900
H1203       H  0.38936954  0.93903574  0.76572452     0.06900
C1204       C  0.42568809  0.56932434  0.78701945     0.42600
C1205       C  0.45213262  0.93182697  0.69799718    -0.06400
Co1206     Co  0.43846407  0.99605432  0.74400897     0.73800
N1207       N  0.45526949  0.94255895  0.79510786    -0.46600
C1208       C  0.06821618  0.57168754  0.69663762     0.42800
N1209       N  0.41954640  0.55804520  0.72030105    -0.46600
Co1210     Co  0.00177932  0.99799286  0.77850311     0.73900
C1211       C  0.05265792  0.55553788  0.78982410    -0.07000
C1212       C  0.07963938  0.93081749  0.71783716    -0.06500
N1213       N  0.46166157  0.52958234  0.70785902    -0.26000
N1214       N  0.09024322  0.94481545  0.77082621    -0.46800
H1215       H  0.10200467  0.56535528  0.72392355     0.06800
C1216       C  0.41674128  0.55598432  0.76813496    -0.06900
Cl1217     Cl  0.00003272  0.99566086  0.74300848    -0.49900
C1218       C  0.42454266  0.92829056  0.79156995     0.42600
H1219       H  0.47049798  0.55908482  0.68225527     0.06800
N1220       N  0.45521108  0.55449184  0.79232079    -0.46600
N1221       N  0.25449406  0.64114591  0.09267716    -0.36600
N1222       N  0.20132586  0.63251660  0.12095954    -0.57200
N1223       N  0.25199739  0.62259790  0.15113291    -0.36600
N1224       N  0.30522571  0.63117785  0.12215504    -0.57200
C1225       C  0.22710469  0.63703227  0.08113233     0.27000
C1226       C  0.28219916  0.63587271  0.08173749     0.27000
C1227       C  0.22344172  0.60979999  0.15961089     0.27000
C1228       C  0.27946527  0.60963648  0.16044200     0.27000
C1229       C  0.18342434  0.64580496  0.10607373     0.35600
C1230       C  0.18187929  0.63509566  0.13692428     0.35600
C1231       C  0.32490358  0.64340235  0.10762223     0.35600
C1232       C  0.32370622  0.63350517  0.13861931     0.35600
C1233       C  0.23741346  0.62887965  0.06262143    -0.21900
C1234       C  0.27233133  0.62805300  0.06301642    -0.21900
C1235       C  0.23297124  0.58843028  0.17459560    -0.21900
C1236       C  0.26818814  0.58839727  0.17514816    -0.21900
C1237       C  0.15251654  0.65735333  0.11259340    -0.23000
C1238       C  0.15160559  0.65075013  0.13221026    -0.23000
C1239       C  0.35601826  0.65392925  0.11487251    -0.23000
C1240       C  0.35524070  0.64776207  0.13453928    -0.23000
C1241       C  0.19356192  0.64430115  0.08650530    -0.18300
C1242       C  0.31588397  0.64211563  0.08777683    -0.18300
C1243       C  0.31420917  0.61812256  0.15645345    -0.18300
C1244       C  0.18928905  0.61882969  0.15475998    -0.18300
H1245       H  0.22149457  0.62499890  0.05002249     0.14600
H1246       H  0.28862824  0.62347255  0.05077057     0.14600
H1247       H  0.21629114  0.57462552  0.18429425     0.14600
H1248       H  0.28371534  0.57451920  0.18532374     0.14600
H1249       H  0.13241938  0.66845015  0.10402688     0.12900
H1250       H  0.13050726  0.65552576  0.14174603     0.12900
H1251       H  0.37731009  0.66408541  0.10677102     0.12900
H1252       H  0.37598583  0.65199595  0.14456765     0.12900
H1253       H  0.25441379  0.65183957  0.10634908     0.26100
H1254       H  0.25274113  0.64177035  0.14079114     0.26100
N1255       N  0.25450995  0.84337387  0.10235440    -0.36600
N1256       N  0.20102024  0.85960640  0.12963442    -0.57200
N1257       N  0.25214076  0.87606773  0.15844703    -0.36600
N1258       N  0.30558864  0.85719464  0.13161289    -0.57200
C1259       C  0.22705347  0.83019929  0.09331347     0.27000
C1260       C  0.28225569  0.82996961  0.09415413     0.27000
C1261       C  0.22389223  0.87992240  0.16927078     0.27000
C1262       C  0.27935962  0.87800514  0.17040401     0.27000
C1263       C  0.18250611  0.85673181  0.11321292     0.35600
C1264       C  0.18073469  0.87414439  0.14278913     0.35600
C1265       C  0.32585094  0.85436010  0.11599074     0.35600
C1266       C  0.32502663  0.87077102  0.14569192     0.35600
C1267       C  0.23745983  0.80812909  0.07919258    -0.21900
C1268       C  0.27240334  0.80809778  0.07967064    -0.21900
C1269       C  0.23334673  0.88467898  0.18841659    -0.21900
C1270       C  0.26830922  0.88336693  0.18913707    -0.21900
C1271       C  0.15017881  0.86913181  0.11600972    -0.23000
C1272       C  0.14892743  0.87979497  0.13476958    -0.23000
C1273       C  0.35839399  0.86564433  0.12022490    -0.23000
C1274       C  0.35794963  0.87585794  0.13906863    -0.23000
C1275       C  0.19313747  0.83989137  0.09639908    -0.18300
C1276       C  0.31615324  0.83898539  0.09850375    -0.18300
C1277       C  0.31386788  0.87837444  0.16456485    -0.18300
C1278       C  0.19014222  0.88196895  0.16206322    -0.18300
H1279       H  0.22155255  0.79420878  0.06923883     0.14600
H1280       H  0.28870798  0.79401166  0.07024380     0.14600
H1281       H  0.21685518  0.88935827  0.20055945     0.14600
H1282       H  0.28386695  0.88690115  0.20191454     0.14600
H1283       H  0.12939080  0.86979073  0.10572922     0.12900
H1284       H  0.12701543  0.89053903  0.14165489     0.12900
H1285       H  0.38029692  0.86603299  0.11080808     0.12900
H1286       H  0.37947352  0.88599072  0.14694272     0.12900
H1287       H  0.25446464  0.86360428  0.11171469     0.26100
H1288       H  0.25306622  0.87631787  0.14348929     0.26100
C1289       C  0.14103637  0.55739006  0.79967818    -0.01900
C1290       C  0.11397915  0.57913038  0.79501557     0.07800
C1291       C  0.11382771  0.61173603  0.80261980    -0.02000
C1292       C  0.14051867  0.62268986  0.81471813    -0.02000
C1293       C  0.16656505  0.60040489  0.82018243     0.08000
C1294       C  0.16627013  0.56747821  0.81294009    -0.02200
Br1295     Br  0.19913882  0.53536871  0.82220102    -0.00700
Br1296     Br  0.14422830  0.51371962  0.78807325    -0.00800
Br1297     Br  0.14146789  0.66832865  0.82372973    -0.00700
Br1298     Br  0.07739320  0.64171266  0.79593823    -0.00700
C1299       C  0.34712067  0.56383605  0.81862141    -0.01900
C1300       C  0.34363408  0.59749507  0.82404167     0.07800
C1301       C  0.36799271  0.62163932  0.81807807    -0.02000
C1302       C  0.39562567  0.61214103  0.80653530    -0.02000
C1303       C  0.39904302  0.57849708  0.80098133     0.08000
C1304       C  0.37461189  0.55436952  0.80706028    -0.02200
Br1305     Br  0.37797221  0.50830774  0.79931312    -0.00700
Br1306     Br  0.31418698  0.53067051  0.82722898    -0.00800
Br1307     Br  0.42818752  0.64532208  0.79769082    -0.00700
Br1308     Br  0.36295391  0.66782540  0.82543041    -0.00700
C1309       C  0.13575996  0.90217238  0.79954825    -0.01900
C1310       C  0.11153238  0.92712210  0.80319397     0.07800
C1311       C  0.11500283  0.94708331  0.82002347    -0.02000
C1312       C  0.14148200  0.94087635  0.83329049    -0.02000
C1313       C  0.16472002  0.91504607  0.82994538     0.08000
C1314       C  0.16208793  0.89598532  0.81292928    -0.02200
Br1315     Br  0.19420626  0.86085530  0.80814841    -0.00700
Br1316     Br  0.13263018  0.87592024  0.77626850    -0.00800
Br1317     Br  0.14679950  0.96850516  0.85595905    -0.00700
Br1318     Br  0.08592322  0.98489947  0.82475879    -0.00700
C1319       C  0.39772746  0.93556338  0.82467865    -0.01900
C1320       C  0.39917576  0.91882631  0.80667307     0.07800
C1321       C  0.37307657  0.89571476  0.80183271    -0.02000
C1322       C  0.34434222  0.89184709  0.81372284    -0.02000
C1323       C  0.34205317  0.90999878  0.83101528     0.08000
C1324       C  0.36891709  0.93157731  0.83654006    -0.02200
Br1325     Br  0.36550045  0.95670979  0.86024320    -0.00700
Br1326     Br  0.43420350  0.96441215  0.83364458    -0.00800
Br1327     Br  0.30817748  0.86140784  0.80636269    -0.00700
Br1328     Br  0.37776244  0.86732990  0.77953128    -0.00700
C1329       C  0.14386074  0.68868967  0.04692915    -0.01900
C1330       C  0.11883537  0.66430231  0.04246888     0.07800
C1331       C  0.12093287  0.63198352  0.05070786    -0.02000
C1332       C  0.14578023  0.62519898  0.06489926    -0.02000
C1333       C  0.16841519  0.65077085  0.07084814     0.08000
C1334       C  0.16823713  0.68215510  0.06132444    -0.02200
Br1335     Br  0.20015928  0.71682520  0.06878753    -0.00700
Br1336     Br  0.14421254  0.73147891  0.03352195    -0.00800
Br1337     Br  0.14832931  0.58126530  0.07665758    -0.00700
Br1338     Br  0.08837396  0.59785858  0.04353953    -0.00700
C1339       C  0.36682212  0.62358693  0.06873317    -0.01900
C1340       C  0.34217232  0.64806414  0.07254289     0.07800
C1341       C  0.34155350  0.67776201  0.06125210    -0.02000
C1342       C  0.36645662  0.68361576  0.04702722    -0.02000
C1343       C  0.39272648  0.66032355  0.04430806     0.08000
C1344       C  0.39225127  0.62988606  0.05479041    -0.02200
Br1345     Br  0.42822188  0.59821711  0.05121265    -0.00700
Br1346     Br  0.36611605  0.58170075  0.08289830    -0.00800
Br1347     Br  0.36557036  0.72452256  0.03177049    -0.00700
Br1348     Br  0.30782136  0.71149007  0.06603572    -0.00700
C1349       C  0.13973081  0.83765215  0.05019890    -0.01900
C1350       C  0.11222708  0.81685458  0.05613936     0.07800
C1351       C  0.11306637  0.80215299  0.07505751    -0.02000
C1352       C  0.14128029  0.80716664  0.08715849    -0.02000
C1353       C  0.16674665  0.83037733  0.08188378     0.08000
C1354       C  0.16590326  0.84574448  0.06341461    -0.02200
Br1355     Br  0.20034224  0.87844491  0.05637374    -0.00700
Br1356     Br  0.14375208  0.85328507  0.02378861    -0.00800
Br1357     Br  0.14528035  0.78196554  0.11117566    -0.00700
Br1358     Br  0.07519094  0.77695820  0.08601268    -0.00700
C1359       C  0.34734709  0.84958002  0.06737627    -0.01900
C1360       C  0.34321246  0.83057100  0.08445542     0.07800
C1361       C  0.36549922  0.80433573  0.08866712    -0.02000
C1362       C  0.39349520  0.79865811  0.07662720    -0.02000
C1363       C  0.39685777  0.81622965  0.05854154     0.08000
C1364       C  0.37240571  0.84100754  0.05382741    -0.02200
Br1365     Br  0.36978357  0.86178117  0.02856237    -0.00700
Br1366     Br  0.31906870  0.88820004  0.06295962    -0.00800
Br1367     Br  0.42737627  0.76817856  0.08672772    -0.00700
Br1368     Br  0.35726476  0.77604918  0.11116603    -0.00700
C1369       C  0.13954549  0.82016742  0.94722270    -0.01900
C1370       C  0.11262106  0.84164709  0.95195946     0.07800
C1371       C  0.11343741  0.87527920  0.94549739    -0.02000
C1372       C  0.13945774  0.88649614  0.93295169    -0.02000
C1373       C  0.16481877  0.86418335  0.92699000     0.08000
C1374       C  0.16526360  0.83120921  0.93456082    -0.02200
Br1375     Br  0.19989606  0.80030932  0.92666127    -0.00700
Br1376     Br  0.14142318  0.77539910  0.95819013    -0.00800
Br1377     Br  0.13982975  0.93206488  0.92331682    -0.00700
Br1378     Br  0.07792302  0.90540488  0.95285212    -0.00700
C1379       C  0.36369803  0.81362017  0.94518378    -0.01900
C1380       C  0.39090327  0.83515097  0.95055431     0.07800
C1381       C  0.39175073  0.86852577  0.94364000    -0.02000
C1382       C  0.36546822  0.88038668  0.93159249    -0.02000
C1383       C  0.33854879  0.85879754  0.92619833     0.08000
C1384       C  0.33771996  0.82541147  0.93298554    -0.02200
Br1385     Br  0.30218231  0.79515721  0.92436228    -0.00700
Br1386     Br  0.36220012  0.76738893  0.95392861    -0.00800
Br1387     Br  0.36706395  0.92573454  0.92160334    -0.00700
Br1388     Br  0.43072795  0.89683132  0.94876272    -0.00700
C1389       C  0.11164348  0.69252271  0.91902959    -0.01900
C1390       C  0.11160424  0.68066253  0.93854755     0.07800
C1391       C  0.13911378  0.66107443  0.94520435    -0.02000
C1392       C  0.16452137  0.65126538  0.93222388    -0.02000
C1393       C  0.16499060  0.66421178  0.91315978     0.08000
C1394       C  0.13918734  0.68583785  0.90687195    -0.02200
Br1395     Br  0.14206846  0.70703239  0.88157668    -0.00700
Br1396     Br  0.07369528  0.71635870  0.90773151    -0.00800
Br1397     Br  0.19813137  0.61914167  0.94044651    -0.00700
Br1398     Br  0.14465311  0.65000368  0.97228839    -0.00700
C1399       C  0.36780609  0.65697412  0.94776978    -0.01900
C1400       C  0.39632892  0.67441672  0.94015231     0.07800
C1401       C  0.39692762  0.68322386  0.92021594    -0.02000
C1402       C  0.36872492  0.67635593  0.90844338    -0.02000
C1403       C  0.34117243  0.65746393  0.91579702     0.08000
C1404       C  0.34099326  0.64727843  0.93540784    -0.02200
Br1405     Br  0.30428058  0.61961028  0.94530066    -0.00700
Br1406     Br  0.36353127  0.64841900  0.97521727    -0.00800
Br1407     Br  0.36746066  0.69395024  0.88222265    -0.00700
Br1408     Br  0.43678394  0.70300443  0.90809681    -0.00700
C1409       C  0.37679485  0.93778306  0.18747497    -0.01900
C1410       C  0.39577664  0.91630072  0.19968479     0.07800
C1411       C  0.38647297  0.88202072  0.20113528    -0.02000
C1412       C  0.35926231  0.86942582  0.18987777    -0.02000
C1413       C  0.34000939  0.89137076  0.17820362     0.08000
C1414       C  0.34836462  0.92565223  0.17740940    -0.02200
Br1415     Br  0.32103353  0.95593507  0.16202944    -0.00700
Br1416     Br  0.39040908  0.98386029  0.18350607    -0.00800
Br1417     Br  0.34813585  0.82223132  0.19028192    -0.00700
Br1418     Br  0.40886120  0.85269419  0.21936389    -0.00700
C1419       C  0.12565895  0.94166041  0.18252989    -0.01900
C1420       C  0.10900232  0.92167788  0.19671118     0.07800
C1421       C  0.11945020  0.88821933  0.19966845    -0.02000
C1422       C  0.14601870  0.87506529  0.18842100    -0.02000
C1423       C  0.16325929  0.89568434  0.17484948     0.08000
C1424       C  0.15339487  0.92920042  0.17226640    -0.02200
Br1425     Br  0.17836789  0.95827499  0.15468259    -0.00700
Br1426     Br  0.10986303  0.98603459  0.17631521    -0.00800
Br1427     Br  0.15945654  0.82903966  0.19178799    -0.00700
Br1428     Br  0.09921260  0.86095128  0.21981712    -0.00700
C1429       C  0.39627960  0.58044697  0.17748747    -0.01900
C1430       C  0.39642100  0.59221845  0.19659021     0.07800
C1431       C  0.37046607  0.61412127  0.20230652    -0.02000
C1432       C  0.34410988  0.62317275  0.18925027    -0.02000
C1433       C  0.34221473  0.60879054  0.17061087     0.08000
C1434       C  0.36862145  0.58704510  0.16495633    -0.02200
Br1435     Br  0.36619578  0.56408172  0.14054036    -0.00700
Br1436     Br  0.43516588  0.55640031  0.16833835    -0.00800
Br1437     Br  0.31101254  0.65575750  0.19686960    -0.00700
Br1438     Br  0.37140547  0.63202769  0.22803449    -0.00700
C1439       C  0.15898525  0.62293382  0.18721553    -0.01900
C1440       C  0.16003822  0.61000244  0.16822784     0.07800
C1441       C  0.13213954  0.58990262  0.16186033    -0.02000
C1442       C  0.10426307  0.58307428  0.17425595    -0.02000
C1443       C  0.10514925  0.59312705  0.19370703     0.08000
C1444       C  0.13252877  0.61336270  0.20003767    -0.02200
Br1445     Br  0.13359493  0.62813058  0.22641485    -0.00700
Br1446     Br  0.19297615  0.65494073  0.19556425    -0.00800
Br1447     Br  0.06413648  0.56054922  0.16460573    -0.00700
Br1448     Br  0.13239445  0.56968488  0.13658363    -0.00700
C1449       C  0.11673228  0.60963123  0.68456303    -0.01900
C1450       C  0.08143215  0.60150767  0.68508611     0.07800
C1451       C  0.05899011  0.62213061  0.67409847    -0.02000
C1452       C  0.07105852  0.65098427  0.66421554    -0.02000
C1453       C  0.10585634  0.65893191  0.66404521     0.08000
C1454       C  0.12863889  0.63823238  0.67420390    -0.02200
Br1455     Br  0.17655110  0.64891050  0.67329623    -0.00700
Br1456     Br  0.15015354  0.57987365  0.69555869    -0.00800
Br1457     Br  0.04002163  0.67957575  0.65006159    -0.00700
Br1458     Br  0.01172554  0.61119743  0.67086455    -0.00700
C1459       C  0.05786728  0.86295845  0.67997241    -0.01900
C1460       C  0.08001971  0.88682728  0.68864024     0.07800
C1461       C  0.11537490  0.88441190  0.68521341    -0.02000
C1462       C  0.12814621  0.85789047  0.67408194    -0.02000
C1463       C  0.10592967  0.83347577  0.66637518     0.08000
C1464       C  0.07083974  0.83595560  0.66947309    -0.02200
Br1465     Br  0.04037576  0.80287727  0.65835861    -0.00700
Br1466     Br  0.00942063  0.86752415  0.68095722    -0.00800
Br1467     Br  0.17609690  0.85547657  0.66865245    -0.00700
Br1468     Br  0.14633524  0.91950280  0.69325816    -0.00700
C1469       C  0.38082562  0.63758271  0.67582329    -0.01900
C1470       C  0.40545875  0.66333009  0.67429733     0.07800
C1471       C  0.43464214  0.66268727  0.68613652    -0.02000
C1472       C  0.44059310  0.63464390  0.69807658    -0.02000
C1473       C  0.41830678  0.60684973  0.69728982     0.08000
C1474       C  0.38760597  0.60891661  0.68701742    -0.02200
Br1475     Br  0.35605961  0.57157659  0.68732416    -0.00700
Br1476     Br  0.33807777  0.64153574  0.66242505    -0.00800
Br1477     Br  0.47894855  0.63402916  0.71557542    -0.00700
Br1478     Br  0.46696174  0.69933349  0.68532747    -0.00700
C1479       C  0.36476043  0.86052571  0.67677689    -0.01900
C1480       C  0.38653185  0.83284450  0.67496433     0.07800
C1481       C  0.41568706  0.83055770  0.68693682    -0.02000
C1482       C  0.42310104  0.85615516  0.70008014    -0.02000
C1483       C  0.40488837  0.88612159  0.69920224     0.08000
C1484       C  0.37494077  0.88798765  0.68811427    -0.02200
Br1485     Br  0.34953102  0.92896618  0.68730314    -0.00700
Br1486     Br  0.32210191  0.86153697  0.66295064    -0.00800
Br1487     Br  0.95702453  0.85098406  0.71987982    -0.00700
Br1488     Br  0.94825388  0.79525423  0.68429851    -0.00700
C1489       C  0.38918160  0.62847942  0.54769012    -0.01900
C1490       C  0.36689926  0.60349278  0.55510533     0.07800
C1491       C  0.35773570  0.60428001  0.57483747    -0.02000
C1492       C  0.36421335  0.63302134  0.58565693    -0.02000
C1493       C  0.38570969  0.65855587  0.57827246     0.08000
C1494       C  0.39978239  0.65522296  0.55962010    -0.02200
Br1495     Br  0.43264864  0.68772247  0.55028780    -0.00700
Br1496     Br  0.40414370  0.62720910  0.52117123    -0.00800
Br1497     Br  0.34015860  0.63837067  0.60972859    -0.00700
Br1498     Br  0.33897457  0.56523953  0.58804156    -0.00700
C1499       C  0.38047588  0.88255785  0.55637501    -0.01900
C1500       C  0.34640237  0.88987567  0.55179991     0.07800
C1501       C  0.32041325  0.86686296  0.55711783    -0.02000
C1502       C  0.32771570  0.83987996  0.56957068    -0.02000
C1503       C  0.36163249  0.83327332  0.57470070     0.08000
C1504       C  0.38811104  0.85318982  0.56687050    -0.02200
Br1505     Br  0.43476663  0.84102764  0.57149135    -0.00700
Br1506     Br  0.41650918  0.91401918  0.55019497    -0.00800
Br1507     Br  0.29099119  0.81317641  0.58034849    -0.00700
Br1508     Br  0.27515388  0.87063555  0.54653582    -0.00700
C1509       C  0.16492606  0.66593853  0.55244032    -0.01900
C1510       C  0.17480843  0.66601478  0.57212893     0.07800
C1511       C  0.19480493  0.63975890  0.57945138    -0.02000
C1512       C  0.20198512  0.61211479  0.56787654    -0.02000
C1513       C  0.19428174  0.61282093  0.54772638     0.08000
C1514       C  0.17642847  0.64055646  0.54002249    -0.02200
Br1515     Br  0.16972632  0.64579950  0.51249208    -0.00700
Br1516     Br  0.13502202  0.70013301  0.54251424    -0.00800
Br1517     Br  0.21999942  0.57277515  0.58089014    -0.00700
Br1518     Br  0.21363458  0.64206774  0.60536442    -0.00700
C1519       C  0.19005817  0.86944226  0.58211326    -0.01900
C1520       C  0.17249937  0.84184122  0.57414989     0.07800
C1521       C  0.16339152  0.84286087  0.55432192    -0.02000
C1522       C  0.17392498  0.87012406  0.54244197    -0.02000
C1523       C  0.18895743  0.89896395  0.55085651     0.08000
C1524       C  0.19502620  0.89884467  0.57111118    -0.02200
Br1525     Br  0.20750914  0.93934174  0.58474299    -0.00700
Br1526     Br  0.20901415  0.86671341  0.60795314    -0.00800
Br1527     Br  0.17005642  0.86582524  0.51473948    -0.00700
Br1528     Br  0.13542874  0.80768043  0.54343238    -0.00700
C1529       C  0.08629924  0.64253179  0.33742830    -0.01900
C1530       C  0.11160844  0.66469682  0.33032291     0.07800
C1531       C  0.12842121  0.65718661  0.31292830    -0.02000
C1532       C  0.11818090  0.62902367  0.30204431    -0.02000
C1533       C  0.09192206  0.60772831  0.30882338     0.08000
C1534       C  0.07752454  0.61362178  0.32702247    -0.02200
Br1535     Br  0.04741214  0.58059701  0.33817287    -0.00700
Br1536     Br  0.06296080  0.65214674  0.36124693    -0.00800
Br1537     Br  0.14003412  0.61950104  0.27794806    -0.00700
Br1538     Br  0.16571408  0.68517259  0.30426472    -0.00700
C1539       C  0.09196908  0.86812640  0.33662470    -0.01900
C1540       C  0.11326568  0.84320758  0.32899293     0.07800
C1541       C  0.12578381  0.84725536  0.30994957    -0.02000
C1542       C  0.11597533  0.87518229  0.29852778    -0.02000
C1543       C  0.09555184  0.90042580  0.30644149     0.08000
C1544       C  0.08443208  0.89711413  0.32567392    -0.02200
Br1545     Br  0.05869653  0.93266096  0.33694312    -0.00700
Br1546     Br  0.07129413  0.86178335  0.36172527    -0.00800
Br1547     Br  0.12977258  0.87855286  0.27184927    -0.00700
Br1548     Br  0.15666389  0.81489749  0.29954222    -0.00700
C1549       C  0.16325651  0.61230518  0.43916433    -0.01900
C1550       C  0.19840029  0.61068554  0.44338577     0.07800
C1551       C  0.21962068  0.63813474  0.43827979    -0.02000
C1552       C  0.20656665  0.66594073  0.42825464    -0.02000
C1553       C  0.17195701  0.66681747  0.42328548     0.08000
C1554       C  0.15016283  0.64025253  0.42902678    -0.02200
Br1555     Br  0.10269355  0.64160475  0.42202655    -0.00700
Br1556     Br  0.13319777  0.57541515  0.44581109    -0.00800
Br1557     Br  0.23678554  0.70192427  0.42004596    -0.00700
Br1558     Br  0.26676497  0.63861096  0.44510144    -0.00700
C1559       C  0.20828065  0.84172208  0.42844279    -0.01900
C1560       C  0.17443354  0.84035702  0.42199042     0.07800
C1561       C  0.15149668  0.86526663  0.42767916    -0.02000
C1562       C  0.16281366  0.89241447  0.43905795    -0.02000
C1563       C  0.19712006  0.89444093  0.44500943     0.08000
C1564       C  0.21929904  0.86816997  0.44023255    -0.02200
Br1565     Br  0.26474823  0.86724053  0.45027510    -0.00700
Br1566     Br  0.24015260  0.80828021  0.42016993    -0.00800
Br1567     Br  0.13173101  0.92769844  0.44521414    -0.00700
Br1568     Br  0.10479206  0.86247208  0.41927818    -0.00700
C1569       C  0.38057281  0.65463676  0.31547626    -0.01900
C1570       C  0.39974398  0.66179494  0.33229864     0.07800
C1571       C  0.42571643  0.63947985  0.33800037    -0.02000
C1572       C  0.43217546  0.61069376  0.32710017    -0.02000
C1573       C  0.41565371  0.60559032  0.30936191     0.08000
C1574       C  0.38915806  0.62710879  0.30377940    -0.02200
Br1575     Br  0.36457939  0.61849120  0.28022986    -0.00700
Br1576     Br  0.34228972  0.68205681  0.30865516    -0.00800
Br1577     Br  0.46199236  0.57666191  0.33690992    -0.00700
Br1578     Br  0.45423084  0.64908696  0.36003812    -0.00700
C1579       C  0.42657996  0.86249432  0.33772888    -0.01900
C1580       C  0.39927330  0.84182124  0.33168410     0.07800
C1581       C  0.38085091  0.85092613  0.31487910    -0.02000
C1582       C  0.39086684  0.87943189  0.30376654    -0.02000
C1583       C  0.41817174  0.89996502  0.30996615     0.08000
C1584       C  0.43473882  0.89210840  0.32746753    -0.02200
Br1585     Br  0.46828920  0.92272605  0.33762167    -0.00700
Br1586     Br  0.45481364  0.84899167  0.35925353    -0.00800
Br1587     Br  0.36819874  0.88966032  0.27971168    -0.00700
Br1588     Br  0.34225817  0.82418544  0.30704673    -0.00700
C1589       C  0.36074896  0.66504948  0.44475220    -0.01900
C1590       C  0.38541136  0.66544598  0.42993225     0.07800
C1591       C  0.40846131  0.63876112  0.42865941    -0.02000
C1592       C  0.40257327  0.60915938  0.43933834    -0.02000
C1593       C  0.37533332  0.60752099  0.45235355     0.08000
C1594       C  0.35718571  0.63650773  0.45667714    -0.02200
Br1595     Br  0.32890699  0.63686121  0.47943833    -0.00700
Br1596     Br  0.33033632  0.70206578  0.44803623    -0.00800
Br1597     Br  0.43120967  0.57080790  0.43602140    -0.00700
Br1598     Br  0.44783352  0.64293106  0.41233538    -0.00700
C1599       C  0.39995709  0.86778093  0.42685736    -0.01900
C1600       C  0.37966750  0.83848076  0.42870416     0.07800
C1601       C  0.35699677  0.83532316  0.44450508    -0.02000
C1602       C  0.35380965  0.86191475  0.45750618    -0.02000
C1603       C  0.36875898  0.89306007  0.45304246     0.08000
C1604       C  0.39321540  0.89569252  0.43838195    -0.02200
Br1605     Br  0.41736853  0.93746636  0.43427572    -0.00700
Br1606     Br  0.43701728  0.86968404  0.40876839    -0.00800
Br1607     Br  0.33050684  0.85581448  0.48185308    -0.00700
Br1608     Br  0.32785780  0.79648655  0.44764315    -0.00700
N1609       N  0.88461272  0.30126862  0.37875711    -0.36600
N1610       N  0.88705862  0.25130481  0.34870871    -0.57200
N1611       N  0.88759214  0.20154655  0.37960193    -0.36600
N1612       N  0.88543154  0.25161885  0.40890695    -0.57200
C1613       C  0.87692649  0.31917209  0.36265741     0.27000
C1614       C  0.87412631  0.31900850  0.39417514     0.27000
C1615       C  0.88023049  0.18297052  0.36387576     0.27000
C1616       C  0.87835250  0.18330554  0.39537760     0.27000
C1617       C  0.89644554  0.27886185  0.33835495     0.35600
C1618       C  0.89757398  0.22424086  0.33882024     0.35600
C1619       C  0.89262113  0.27904743  0.41935969     0.35600
C1620       C  0.89433604  0.22502832  0.41983151     0.35600
C1621       C  0.86082889  0.34845968  0.36781244    -0.21900
C1622       C  0.85863089  0.34816094  0.38773295    -0.21900
C1623       C  0.86552894  0.15274185  0.36965556    -0.21900
C1624       C  0.86415609  0.15302421  0.38957987    -0.21900
C1625       C  0.91245861  0.26929150  0.32149776    -0.23000
C1626       C  0.91314621  0.23459432  0.32178206    -0.23000
C1627       C  0.90659424  0.26995846  0.43707855    -0.23000
C1628       C  0.90760687  0.23544929  0.43739394    -0.23000
C1629       C  0.88955037  0.31221128  0.34401998    -0.18300
C1630       C  0.88253397  0.31141481  0.41370292    -0.18300
C1631       C  0.88647884  0.19187177  0.41469908    -0.18300
C1632       C  0.89181648  0.19056757  0.34497961    -0.18300
H1633       H  0.85281630  0.36853844  0.35824026     0.14600
H1634       H  0.84849377  0.36799520  0.39649674     0.14600
H1635       H  0.85800930  0.13208078  0.36049515     0.14600
H1636       H  0.85518786  0.13265972  0.39876498     0.14600
H1637       H  0.92251344  0.28555782  0.31021710     0.12900
H1638       H  0.92385077  0.21883916  0.31076318     0.12900
H1639       H  0.91399163  0.28636824  0.44877034     0.12900
H1640       H  0.91593178  0.21982648  0.44936063     0.12900
H1641       H  0.90118848  0.28113008  0.37923087     0.26100
H1642       H  0.90311034  0.22285640  0.37962667     0.26100
N1643       N  0.64304173  0.30355771  0.37518050    -0.36600
N1644       N  0.62637795  0.25324704  0.34685856    -0.57200
N1645       N  0.64091892  0.20247704  0.37610405    -0.36600
N1646       N  0.65745455  0.25287206  0.40402133    -0.57200
C1647       C  0.64263649  0.32174976  0.35855785     0.27000
C1648       C  0.66075772  0.32154618  0.38836423     0.27000
C1649       C  0.64063020  0.18437058  0.35969959     0.27000
C1650       C  0.65710494  0.18402454  0.38973461     0.27000
C1651       C  0.61298139  0.28043572  0.33794883     0.35600
C1652       C  0.61292965  0.22590491  0.33818137     0.35600
C1653       C  0.65941639  0.28011590  0.41535778     0.35600
C1654       C  0.65752693  0.22585489  0.41592104     0.35600
C1655       C  0.66061901  0.35147309  0.36112005    -0.21900
C1656       C  0.67212483  0.35132476  0.37994926    -0.21900
C1657       C  0.65689272  0.15414660  0.36288990    -0.21900
C1658       C  0.66738975  0.15395399  0.38185694    -0.21900
C1659       C  0.59093369  0.27032718  0.32339663    -0.23000
C1660       C  0.59103595  0.23567280  0.32348454    -0.23000
C1661       C  0.66067676  0.27043388  0.43467759    -0.23000
C1662       C  0.65947916  0.23590396  0.43503237    -0.23000
C1663       C  0.62281437  0.31393981  0.34206796    -0.18300
C1664       C  0.66411149  0.31310875  0.40820647    -0.18300
C1665       C  0.66068126  0.19264288  0.40941374    -0.18300
C1666       C  0.62205974  0.19254059  0.34284205    -0.18300
H1667       H  0.66415285  0.37161221  0.35067431     0.14600
H1668       H  0.68637101  0.37130672  0.38682552     0.14600
H1669       H  0.65997057  0.13392355  0.35274609     0.14600
H1670       H  0.68039147  0.13361437  0.38912456     0.14600
H1671       H  0.57681882  0.28623482  0.31354563     0.12900
H1672       H  0.57692047  0.21954718  0.31377265     0.12900
H1673       H  0.66345763  0.28649797  0.44712160     0.12900
H1674       H  0.66126057  0.22001529  0.44778194     0.12900
H1675       H  0.62791344  0.28256601  0.37811649     0.26100
H1676       H  0.62676875  0.22389182  0.37852361     0.26100
C1677       C  0.71165304  0.42461756  0.45404853     0.42400
N1678       N  0.72062533  0.46572716  0.47334210     0.01300
C1679       C  0.87119750  0.05909171  0.47783051    -0.06500
H1680       H  0.88540636  0.43229727  0.48957189     0.06800
C1681       C  0.80878222  0.44261432  0.54879785    -0.06900
Co1682     Co  0.78599174  0.00151513  0.46309711     0.74200
N1683       N  0.84307446  0.46358957  0.48151083    -0.26100
Co1684     Co  0.84167887  0.00044088  0.50232872     0.74100
C1685       C  0.83724958  0.42217272  0.54308875     0.43000
N1686       N  0.73465160  0.46906550  0.53096418     0.01000
N1687       N  0.83421852  0.46468941  0.52404847     0.01100
N1688       N  0.83424400  0.06004595  0.45267383    -0.46900
H1689       H  0.76006658  0.43687386  0.43675094     0.06800
N1690       N  0.82228748  0.46398123  0.46646522     0.01300
N1691       N  0.83909471  0.03809501  0.52298952     0.01100
C1692       C  0.84882798  0.07926794  0.54202910     0.42700
N1693       N  0.71244169  0.46793306  0.51669441    -0.25500
C1694       C  0.74514294  0.06261462  0.44711666    -0.06400
N1695       N  0.69875167  0.44105403  0.46939670    -0.46600
N1696       N  0.86258920  0.06073626  0.52779239    -0.46900
C1697       C  0.71358887  0.07944796  0.45217779     0.42500
N1698       N  0.82554005  0.03682633  0.46559039     0.01300
N1699       N  0.71457235  0.04166915  0.51503136    -0.25500
N1700       N  0.74689296  0.46617139  0.46148598    -0.26000
N1701       N  0.73805734  0.04232862  0.52859843     0.01000
H1702       H  0.67130409  0.07331460  0.50949964     0.06900
H1703       H  0.79597363  0.07408099  0.55567545     0.06900
N1704       N  0.84683249  0.03580834  0.48040077    -0.26100
N1705       N  0.80839718  0.46774293  0.53591736    -0.25700
N1706       N  0.72244630  0.03913771  0.47228701     0.01300
C1707       C  0.85546000  0.42295801  0.46151266     0.42700
C1708       C  0.69042761  0.44248231  0.52033850    -0.07000
N1709       N  0.81138070  0.04051595  0.53340917    -0.25700
H1710       H  0.79091936  0.43880949  0.56048183     0.06900
N1711       N  0.82882850  0.43983180  0.45409295    -0.46900
H1712       H  0.66839178  0.43646382  0.51162376     0.06900
C1713       C  0.70827959  0.08567509  0.53480277     0.42600
C1714       C  0.74307238  0.44171391  0.44863194    -0.06400
Co1715     Co  0.71643372  0.00346232  0.49429732     0.73800
N1716       N  0.72963183  0.44533523  0.54407231    -0.46600
C1717       C  0.86311799  0.07459606  0.45930439     0.42800
N1718       N  0.70091610  0.06337269  0.46788575    -0.46600
Co1719     Co  0.77300899  0.00503034  0.53250161     0.73900
C1720       C  0.81460327  0.06646838  0.54521525    -0.07000
C1721       C  0.86493004  0.43832472  0.47970941    -0.06500
N1722       N  0.74885700  0.03848235  0.46054990    -0.26000
N1723       N  0.85228312  0.43749578  0.52775542    -0.46800
H1724       H  0.89193996  0.06435167  0.48767727     0.06800
C1725       C  0.69396625  0.06807235  0.51781194    -0.06900
Cl1726     Cl  0.77925532  0.00256196  0.49798182    -0.49900
C1727       C  0.70217059  0.42732108  0.53872707     0.42600
H1728       H  0.76188177  0.06704473  0.43496248     0.06800
N1729       N  0.73562030  0.06815016  0.54011788    -0.46600
N1730       N  0.87486003  0.29801350  0.62432667    -0.36600
N1731       N  0.88377541  0.24810787  0.59440896    -0.57200
N1732       N  0.89723746  0.19997197  0.62464846    -0.36600
N1733       N  0.88805853  0.24852734  0.65395393    -0.57200
C1734       C  0.87783033  0.31723592  0.60818195     0.27000
C1735       C  0.88338450  0.31746155  0.63959450     0.27000
C1736       C  0.90707959  0.18338828  0.60873670     0.27000
C1737       C  0.90985039  0.18351001  0.64022250     0.27000
C1738       C  0.86913077  0.27270077  0.58389441     0.35600
C1739       C  0.87940052  0.21954620  0.58434679     0.35600
C1740       C  0.87730203  0.27387401  0.66492286     0.35600
C1741       C  0.88743435  0.22089530  0.66525533     0.35600
C1742       C  0.88763028  0.34949592  0.61328439    -0.21900
C1743       C  0.89196625  0.34939845  0.63302656    -0.21900
C1744       C  0.92688932  0.15633012  0.61419373    -0.21900
C1745       C  0.92869603  0.15643080  0.63413961    -0.21900
C1746       C  0.85620873  0.25996744  0.56675753    -0.23000
C1747       C  0.86203022  0.22604728  0.56725000    -0.23000
C1748       C  0.86939628  0.26232295  0.68337677    -0.23000
C1749       C  0.87583537  0.22849030  0.68358306    -0.23000
C1750       C  0.86956190  0.30671155  0.58922060    -0.18300
C1751       C  0.88111004  0.30763628  0.65933092    -0.18300
C1752       C  0.90088914  0.19009914  0.65959620    -0.18300
C1753       C  0.89249723  0.18821922  0.59022026    -0.18300
H1754       H  0.89130198  0.37105503  0.60388518     0.14600
H1755       H  0.89960922  0.37077876  0.64157702     0.14600
H1756       H  0.93714057  0.13739091  0.60483130     0.14600
H1757       H  0.94099142  0.13778363  0.64315220     0.14600
H1758       H  0.84376370  0.27357827  0.55516589     0.12900
H1759       H  0.85488318  0.20842564  0.55611771     0.12900
H1760       H  0.86162226  0.27706884  0.69561330     0.12900
H1761       H  0.87370870  0.21177954  0.69597147     0.12900
H1762       H  0.86393491  0.27414239  0.62495603     0.26100
H1763       H  0.87784308  0.21743640  0.62496165     0.26100
N1764       N  0.64240857  0.19879728  0.61867621    -0.36600
N1765       N  0.62462385  0.24715831  0.64728151    -0.57200
N1766       N  0.64190654  0.30023100  0.61982512    -0.36600
N1767       N  0.65965949  0.25196597  0.59101737    -0.57200
C1768       C  0.62529068  0.17894009  0.63143405     0.27000
C1769       C  0.64402563  0.18207312  0.60176380     0.27000
C1770       C  0.62387939  0.31716637  0.63307718     0.27000
C1771       C  0.64243639  0.31909897  0.60340102     0.27000
C1772       C  0.62176508  0.21926953  0.65847472     0.35600
C1773       C  0.62212181  0.27370487  0.65914046     0.35600
C1774       C  0.67449043  0.22560290  0.58257447     0.35600
C1775       C  0.67389911  0.27984039  0.58313321     0.35600
C1776       C  0.61607581  0.14917491  0.62251047    -0.21900
C1777       C  0.62763014  0.15127269  0.60376543    -0.21900
C1778       C  0.61272071  0.34707844  0.62496682    -0.21900
C1779       C  0.62423203  0.34818001  0.60619743    -0.21900
C1780       C  0.61739627  0.22810579  0.67763481    -0.23000
C1781       C  0.61774937  0.26265931  0.67807065    -0.23000
C1782       C  0.69854330  0.23670324  0.56929266    -0.23000
C1783       C  0.69817017  0.27123627  0.56965435    -0.23000
C1784       C  0.61929606  0.18630821  0.65117015    -0.18300
C1785       C  0.66393736  0.19202045  0.58557947    -0.18300
C1786       C  0.66260668  0.31254656  0.58696098    -0.18300
C1787       C  0.61909879  0.30731707  0.65264215    -0.18300
H1788       H  0.60280875  0.12789275  0.62887791     0.14600
H1789       H  0.62532764  0.13181055  0.59302877     0.14600
H1790       H  0.59821883  0.36639136  0.63193132     0.14600
H1791       H  0.62063020  0.36859717  0.59598110     0.14600
H1792       H  0.61330426  0.21143830  0.68988636     0.12900
H1793       H  0.61380239  0.27788665  0.69071823     0.12900
H1794       H  0.71408812  0.22153803  0.56001684     0.12900
H1795       H  0.71335919  0.28803549  0.56073544     0.12900
H1796       H  0.65609611  0.22047011  0.62198609     0.26100
H1797       H  0.65676384  0.27930580  0.62266501     0.26100
C1798       C  0.93025526  0.08221596  0.29518622     0.42400
N1799       N  0.96362881  0.06592707  0.27282097     0.01300
C1800       C  0.95663016  0.42166113  0.21808150    -0.06500
H1801       H  0.98189856  0.39415863  0.28720652     0.06800
C1802       C  0.59059285  0.45875721  0.28712515    -0.06900
Co1803     Co  0.94144623  0.50216953  0.25456557     0.74200
N1804       N  0.97051610  0.44135961  0.27341425    -0.26100
Co1805     Co  0.50639386  0.44389579  0.25164380     0.74100
C1806       C  0.57947160  0.42493555  0.29341318     0.42600
N1807       N  0.56352167  0.04681328  0.27392898     0.01000
N1808       N  0.54442332  0.44410446  0.27238359     0.01100
N1809       N  0.91515471  0.45941326  0.22250856    -0.46900
H1810       H  0.89675317  0.03461760  0.29259084     0.06800
N1811       N  0.94561754  0.46302080  0.27533888     0.01300
N1812       N  0.54498022  0.44784692  0.23051966     0.01100
C1813       C  0.58361616  0.43793945  0.20942779     0.42700
N1814       N  0.53888112  0.06892237  0.27225093    -0.25500
C1815       C  0.91142531  0.04458533  0.22101125    -0.06400
N1816       N  0.95775220  0.09091272  0.28472047    -0.46600
N1817       N  0.55421846  0.42577744  0.21722931    -0.46900
C1818       C  0.91937189  0.07580319  0.21096815     0.42500
N1819       N  0.94159539  0.46570617  0.23364781     0.01300
N1820       N  0.54015737  0.06710413  0.22986698    -0.25500
N1821       N  0.94176247  0.04073896  0.27489794    -0.26000
N1822       N  0.56525027  0.04551897  0.23178777     0.01000
H1823       H  0.53444637  0.11068251  0.21111796     0.06900
H1824       H  0.61527938  0.48356689  0.21857904     0.06900
N1825       N  0.96653451  0.44420429  0.23146823    -0.26100
N1826       N  0.56691723  0.46878406  0.27409879    -0.25700
N1827       N  0.96023427  0.06392817  0.23074284     0.01300
C1828       C  0.93540773  0.42391189  0.29634620     0.42700
C1829       C  0.54350628  0.09285208  0.28538629    -0.07000
N1830       N  0.56750323  0.47245426  0.23221442    -0.25700
H1831       H  0.61405165  0.47191723  0.29037365     0.06900
N1832       N  0.92322353  0.45295309  0.28869119    -0.46900
H1833       H  0.52821670  0.11502840  0.28684267     0.06900
C1834       C  0.58174091  0.07726074  0.20815121     0.42600
C1835       C  0.91927407  0.04888960  0.28871594    -0.06400
Co1836     Co  0.50104323  0.06695676  0.25107782     0.73800
N1837       N  0.58619035  0.05541009  0.28740135    -0.46600
C1838       C  0.92239757  0.43223934  0.21212246     0.42800
N1839       N  0.94997108  0.08675752  0.21777459    -0.46600
Co1840     Co  0.56612653  0.50849881  0.25340306     0.73900
C1841       C  0.59237436  0.46841600  0.21951330    -0.07000
C1842       C  0.96646456  0.41637090  0.28622178    -0.06500
N1843       N  0.93768234  0.03935794  0.23297983    -0.26000
N1844       N  0.55089247  0.41792449  0.28360567    -0.46800
H1845       H  0.97047693  0.39951933  0.21412905     0.06800
C1846       C  0.54854022  0.08864432  0.21530541    -0.06900
Cl1847     Cl  0.50366368  0.50537296  0.25268947    -0.49900
C1848       C  0.57448203  0.08391218  0.29545202     0.42600
H1849       H  0.88843669  0.02953506  0.22041804     0.06800
N1850       N  0.59014630  0.05071276  0.21924381    -0.46600
C1851       C  0.92104583  0.31965921  0.96010324     0.42400
N1852       N  0.96404963  0.31049899  0.97852793     0.01300
C1853       C  0.56723212  0.17254722  0.96785446    -0.06500
H1854       H  0.93658601  0.14371923  0.97519797     0.06800
C1855       C  0.94364035  0.19914509  0.04348998    -0.06900
Co1856     Co  0.50295750  0.25381469  0.96308645     0.74200
N1857       N  0.96729228  0.18882278  0.97370266    -0.26100
Co1858     Co  0.50461041  0.18628642  0.99517708     0.74100
C1859       C  0.92518346  0.17097465  0.03574569     0.42600
N1860       N  0.96634298  0.27803977  0.03348120     0.01000
N1861       N  0.96706334  0.18264892  0.01696361     0.01100
N1862       N  0.56558151  0.21923569  0.94927717    -0.46900
H1863       H  0.93613427  0.27876908  0.93896613     0.06800
N1864       N  0.96674120  0.21518241  0.96206029     0.01300
N1865       N  0.54280595  0.18563185  0.01657708     0.01100
C1866       C  0.58668181  0.17679903  0.03424988     0.42700
N1867       N  0.96567790  0.30472451  0.02214508    -0.25500
C1868       C  0.56337152  0.29886474  0.95197553    -0.06400
N1869       N  0.93732860  0.33036317  0.97633359    -0.46600
N1870       N  0.57001269  0.16622709  0.01815794    -0.46900
C1871       C  0.58091609  0.32763588  0.95999828     0.42500
N1872       N  0.54083714  0.21861919  0.96203387     0.01300
N1873       N  0.54016468  0.30750844  0.02169851    -0.25500
N1874       N  0.96574650  0.28823036  0.96459041    -0.26000
N1875       N  0.54064100  0.28049948  0.03280350     0.01000
H1876       H  0.57198880  0.35199977  0.02107171     0.06900
H1877       H  0.57236493  0.21744390  0.05565576     0.06900
N1878       N  0.54131009  0.19190307  0.97340717    -0.26100
N1879       N  0.96840165  0.20498525  0.03088078    -0.25700
N1880       N  0.53918998  0.31422577  0.97846436     0.01300
C1881       C  0.92419052  0.18540883  0.95277619     0.42700
C1882       C  0.94050422  0.32457241  0.02825759    -0.07000
N1883       N  0.54134838  0.20774238  0.03057667    -0.25700
H1884       H  0.93890411  0.21318465  0.05645969     0.06900
N1885       N  0.94133072  0.21424008  0.94963895    -0.46900
H1886       H  0.93632404  0.34962226  0.02279401     0.06900
C1887       C  0.58402978  0.30854552  0.04264614     0.42600
C1888       C  0.94027179  0.29256269  0.95217162    -0.06400
Co1889     Co  0.50219120  0.31103921  0.00032942     0.73800
N1890       N  0.94230415  0.27792714  0.04666112    -0.46600
C1891       C  0.58352844  0.19111823  0.95174613     0.42800
N1892       N  0.56459841  0.33625806  0.97643183    -0.46600
Co1893     Co  0.50420866  0.24334026  0.03220577     0.73900
C1894       C  0.56740378  0.20348227  0.04260959    -0.07000
C1895       C  0.94153794  0.16813345  0.96880794    -0.06500
N1896       N  0.53851135  0.29201068  0.96445851    -0.26000
N1897       N  0.94087030  0.16147366  0.01920469    -0.46800
H1898       H  0.57261288  0.14793372  0.97369962     0.06800
C1899       C  0.56660807  0.32732512  0.02697952    -0.06900
Cl1900     Cl  0.50344016  0.24862967  0.99768397    -0.49900
C1901       C  0.92450814  0.30628264  0.04470015     0.42600
H1902       H  0.56865768  0.28520826  0.93891290     0.06800
N1903       N  0.56635724  0.27999778  0.04490753    -0.46600
N1904       N  0.70076021  0.39153398  0.87866901    -0.36600
N1905       N  0.75279108  0.40232394  0.84964124    -0.57200
N1906       N  0.80351745  0.38661196  0.87832424    -0.36600
N1907       N  0.75209466  0.37639083  0.90710316    -0.57200
C1908       C  0.68233228  0.39079215  0.86211623     0.27000
C1909       C  0.68191986  0.37646120  0.89268670     0.27000
C1910       C  0.82114375  0.38412491  0.86170194     0.27000
C1911       C  0.82088897  0.36961303  0.89208419     0.27000
C1912       C  0.72586811  0.41541879  0.84026081     0.35600
C1913       C  0.78080889  0.41344433  0.84026524     0.35600
C1914       C  0.72499514  0.37834952  0.91885205     0.35600
C1915       C  0.77977190  0.37578885  0.91862632     0.35600
C1916       C  0.65127063  0.37520495  0.86564580    -0.21900
C1917       C  0.65104343  0.36606655  0.88495483    -0.21900
C1918       C  0.84995744  0.36513399  0.86485725    -0.21900
C1919       C  0.84978434  0.35592036  0.88410106    -0.21900
C1920       C  0.73675894  0.43513616  0.82478518    -0.23000
C1921       C  0.77175498  0.43395741  0.82482665    -0.23000
C1922       C  0.73547509  0.37939481  0.93801840    -0.23000
C1923       C  0.77034813  0.37772861  0.93786965    -0.23000
C1924       C  0.69183921  0.40661605  0.84447065    -0.18300
C1925       C  0.69121447  0.37398420  0.91248521    -0.18300
C1926       C  0.81261009  0.36876153  0.91192555    -0.18300
C1927       C  0.81385088  0.40212936  0.84454485    -0.18300
H1928       H  0.63070778  0.37134601  0.85544452     0.14600
H1929       H  0.63029075  0.35372474  0.89251240     0.14600
H1930       H  0.86954884  0.35939212  0.85450092     0.14600
H1931       H  0.86915200  0.34154806  0.89148216     0.14600
H1932       H  0.72111319  0.44825757  0.81432852     0.12900
H1933       H  0.78852185  0.44591000  0.81439953     0.12900
H1934       H  0.71958768  0.37974432  0.95075873     0.12900
H1935       H  0.78675324  0.37658410  0.95045435     0.12900
H1936       H  0.72311895  0.40519228  0.88077275     0.26100
H1937       H  0.78355985  0.40293995  0.88071639     0.26100
N1938       N  0.80374216  0.12787554  0.86960007    -0.36600
N1939       N  0.75217393  0.14885447  0.89581184    -0.57200
N1940       N  0.70188215  0.13439499  0.86648753    -0.36600
N1941       N  0.75420294  0.11408148  0.84021351    -0.57200
C1942       C  0.82026053  0.12711929  0.88675736     0.27000
C1943       C  0.82218766  0.10998581  0.85704600     0.27000
C1944       C  0.68289978  0.13623573  0.88269718     0.27000
C1945       C  0.68363350  0.11677840  0.85338238     0.27000
C1946       C  0.77986217  0.16111196  0.90490349     0.35600
C1947       C  0.72533611  0.16496258  0.90307991     0.35600
C1948       C  0.78249078  0.11233124  0.82931852     0.35600
C1949       C  0.72751080  0.11413800  0.82792044     0.35600
C1950       C  0.84930465  0.10800476  0.88519858    -0.21900
C1951       C  0.85062908  0.09731296  0.86634111    -0.21900
C1952       C  0.65220546  0.11959106  0.87990230    -0.21900
C1953       C  0.65266628  0.10727316  0.86136113    -0.21900
C1954       C  0.77074402  0.18551269  0.91797717    -0.23000
C1955       C  0.73591795  0.18790415  0.91685340    -0.23000
C1956       C  0.77382456  0.11133098  0.80987768    -0.23000
C1957       C  0.73885540  0.11245166  0.80898547    -0.23000
C1958       C  0.81249509  0.14783669  0.90253189    -0.18300
C1959       C  0.81538460  0.10771075  0.83705912    -0.18300
C1960       C  0.69330438  0.11151569  0.83396629    -0.18300
C1961       C  0.69155718  0.15542873  0.89911311    -0.18300
H1962       H  0.86836438  0.10365066  0.89623986     0.14600
H1963       H  0.87070770  0.08271914  0.86005327     0.14600
H1964       H  0.63137410  0.11723511  0.89001476     0.14600
H1965       H  0.63227013  0.09346115  0.85441759     0.14600
H1966       H  0.78727439  0.19930165  0.92767353     0.12900
H1967       H  0.72012394  0.20379027  0.92557585     0.12900
H1968       H  0.79080928  0.10881836  0.79771550     0.12900
H1969       H  0.72351358  0.11100776  0.79598791     0.12900
H1970       H  0.78417520  0.14405420  0.86584340     0.26100
H1971       H  0.72407565  0.14803213  0.86372051     0.26100
C1972       C  0.92111531  0.41727991  0.70598747     0.42400
N1973       N  0.93654975  0.45823392  0.72368086     0.01300
C1974       C  0.58149441  0.05664245  0.71498641    -0.06500
H1975       H  0.60198615  0.42379920  0.72632853     0.06800
C1976       C  0.54930165  0.44248587  0.79352514    -0.06900
Co1977     Co  0.49829516  0.49292946  0.70737813     0.74200
N1978       N  0.55926040  0.45617591  0.72124067    -0.26100
Co1979     Co  0.56221912  0.49489685  0.74177578     0.74100
C1980       C  0.58387722  0.43238873  0.78894997     0.42600
N1981       N  0.96311601  0.46176244  0.77998322     0.01000
N1982       N  0.56308380  0.46080729  0.76501860     0.01100
N1983       N  0.54084628  0.05276610  0.69212359    -0.46900
H1984       H  0.96503618  0.42640628  0.68474580     0.06800
N1985       N  0.53520876  0.45621403  0.70789997     0.01300
N1986       N  0.56381093  0.03258828  0.76224277     0.01100
C1987       C  0.58570522  0.06742369  0.78240148     0.42700
N1988       N  0.93917651  0.46113329  0.76661635    -0.25500
C1989       C  0.95649792  0.05549142  0.69580626    -0.06400
N1990       N  0.91298568  0.43436238  0.72202166    -0.46600
N1991       N  0.59058076  0.05212538  0.76537279    -0.46900
C1992       C  0.92907027  0.07422663  0.70426240     0.42500
N1993       N  0.53698166  0.02918726  0.70565874     0.01300
N1994       N  0.94060670  0.03397400  0.76430338    -0.25500
N1995       N  0.95948210  0.45743498  0.70981190    -0.26000
N1996       N  0.96364337  0.03438918  0.77817155     0.01000
H1997       H  0.89218266  0.05735958  0.76097942     0.06900
H1998       H  0.54243871  0.05784014  0.80406401     0.06900
N1999       N  0.56079123  0.03046678  0.71906603    -0.26100
N2000       N  0.53920019  0.46112428  0.77838855    -0.25700
N2001       N  0.93871259  0.03156990  0.72204233     0.01300
C2002       C  0.56629879  0.41440555  0.70019058     0.42700
C2003       C  0.91436502  0.44030599  0.77246758    -0.07000
N2004       N  0.54124296  0.03370352  0.77633400    -0.25700
H2005       H  0.53654386  0.44135006  0.80735160     0.06900
N2006       N  0.53863137  0.43209977  0.69507368    -0.46900
H2007       H  0.88952323  0.43870466  0.76578859     0.06900
C2008       C  0.92553341  0.06944530  0.78717117     0.42600
C2009       C  0.95178178  0.43230412  0.69791175    -0.06400
Co2010     Co  0.93821407  0.49613157  0.74412713     0.73800
N2011       N  0.95544584  0.44255135  0.79514889    -0.46600
C2012       C  0.56863399  0.07138110  0.69675204     0.42800
N2013       N  0.91890717  0.05809827  0.72047712    -0.46600
Co2014     Co  0.50191444  0.49773909  0.77845080     0.73900
C2015       C  0.55287154  0.05520657  0.78971197    -0.07000
C2016       C  0.57992584  0.43028704  0.71777634    -0.06500
N2017       N  0.96118152  0.02990056  0.70799823    -0.26000
N2018       N  0.59026942  0.44423540  0.77089521    -0.46800
H2019       H  0.60203448  0.06502730  0.72420303     0.06800
C2020       C  0.91643465  0.05600118  0.76833410    -0.06900
Cl2021     Cl  0.50028454  0.49530959  0.74294774    -0.49900
C2022       C  0.92482112  0.42807416  0.79159594     0.42600
H2023       H  0.96985987  0.05953959  0.68241910     0.06800
N2024       N  0.95510251  0.05467057  0.79242518    -0.46600
N2025       N  0.75468045  0.14044820  0.09259192    -0.36600
N2026       N  0.70165095  0.13225571  0.12093304    -0.57200
N2027       N  0.75238004  0.12185771  0.15097249    -0.36600
N2028       N  0.80545603  0.13018166  0.12196892    -0.57200
C2029       C  0.72719376  0.13661526  0.08109467     0.27000
C2030       C  0.78226167  0.13469305  0.08163515     0.27000
C2031       C  0.72387313  0.10888613  0.15939004     0.27000
C2032       C  0.77984292  0.10865353  0.16014651     0.27000
C2033       C  0.68372920  0.14573227  0.10610802     0.35600
C2034       C  0.68226171  0.13464941  0.13693494     0.35600
C2035       C  0.82508468  0.14230544  0.10740575     0.35600
C2036       C  0.82389830  0.13283062  0.13841636     0.35600
C2037       C  0.73730702  0.12814465  0.06259824    -0.21900
C2038       C  0.77221034  0.12682058  0.06295507    -0.21900
C2039       C  0.73342423  0.08708774  0.17416482    -0.21900
C2040       C  0.76863331  0.08701101  0.17467102    -0.21900
C2041       C  0.65285573  0.15723220  0.11271192    -0.23000
C2042       C  0.65198573  0.15037357  0.13230912    -0.23000
C2043       C  0.85613427  0.15311568  0.11461040    -0.23000
C2044       C  0.85534417  0.14725926  0.13430506    -0.23000
C2045       C  0.69377695  0.14433127  0.08650883    -0.18300
C2046       C  0.81602684  0.14071098  0.08759577    -0.18300
C2047       C  0.81450952  0.11737777  0.15622563    -0.18300
C2048       C  0.68976439  0.11819945  0.15471198    -0.18300
H2049       H  0.72128038  0.12436140  0.05003376     0.14600
H2050       H  0.78839442  0.12192584  0.05070437     0.14600
H2051       H  0.71676402  0.07305614  0.18376794     0.14600
H2052       H  0.78419891  0.07287212  0.18470562     0.14600
H2053       H  0.63273160  0.16841775  0.10420616     0.12900
H2054       H  0.63091414  0.15503991  0.14188319     0.12900
H2055       H  0.87737786  0.16327292  0.10646832     0.12900
H2056       H  0.87605372  0.15172339  0.14432445     0.12900
H2057       H  0.75479221  0.15129247  0.10622654     0.26100
H2058       H  0.75311273  0.14132774  0.14081204     0.26100
N2059       N  0.75432814  0.34260335  0.10249568    -0.36600
N2060       N  0.70099231  0.36001011  0.12971012    -0.57200
N2061       N  0.75238917  0.37810970  0.15805965    -0.36600
N2062       N  0.80567718  0.35787361  0.13127269    -0.57200
C2063       C  0.72679917  0.32923071  0.09362768     0.27000
C2064       C  0.78200149  0.32907810  0.09426288     0.27000
C2065       C  0.72428873  0.38319984  0.16885471     0.27000
C2066       C  0.77981551  0.38122176  0.16979898     0.27000
C2067       C  0.68216082  0.35590106  0.11349267     0.35600
C2068       C  0.68055162  0.37433808  0.14287435     0.35600
C2069       C  0.82584876  0.35416791  0.11568103     0.35600
C2070       C  0.82528053  0.37189847  0.14512548     0.35600
C2071       C  0.73707874  0.30691921  0.07960363    -0.21900
C2072       C  0.77201722  0.30692065  0.07995702    -0.21900
C2073       C  0.73409795  0.39010888  0.18771600    -0.21900
C2074       C  0.76905588  0.38867137  0.18833257    -0.21900
C2075       C  0.64949486  0.36732387  0.11644124    -0.23000
C2076       C  0.64829285  0.37838114  0.13509731    -0.23000
C2077       C  0.85849096  0.36538689  0.11970574    -0.23000
C2078       C  0.85821542  0.37641154  0.13838837    -0.23000
C2079       C  0.69290961  0.33899456  0.09670823    -0.18300
C2080       C  0.81593870  0.33824180  0.09840042    -0.18300
C2081       C  0.81429688  0.38052336  0.16388297    -0.18300
C2082       C  0.69027939  0.38385811  0.16185939    -0.18300
H2083       H  0.72107746  0.29285785  0.06976711     0.14600
H2084       H  0.78822798  0.29270092  0.07054487     0.14600
H2085       H  0.71784455  0.39613020  0.19975074     0.14600
H2086       H  0.78480071  0.39347096  0.20089538     0.14600
H2087       H  0.62840952  0.36705842  0.10635578     0.12900
H2088       H  0.62610552  0.38849675  0.14201311     0.12900
H2089       H  0.88034542  0.36523854  0.11025816     0.12900
H2090       H  0.87985168  0.38676318  0.14606658     0.12900
H2091       H  0.75433193  0.36299277  0.11162051     0.26100
H2092       H  0.75309381  0.37622924  0.14329136     0.26100
C2093       C  0.64120451  0.05727229  0.79962198    -0.01900
C2094       C  0.61416010  0.07893125  0.79481524     0.07800
C2095       C  0.61400138  0.11169135  0.80218689    -0.02000
C2096       C  0.64064437  0.12286463  0.81424318    -0.02000
C2097       C  0.66667178  0.10067787  0.81986673     0.08000
C2098       C  0.66642677  0.06762051  0.81282038    -0.02200
Br2099     Br  0.69932219  0.03570491  0.82227740    -0.00700
Br2100     Br  0.64436769  0.01336588  0.78830546    -0.00800
Br2101     Br  0.64151842  0.16864603  0.82301329    -0.00700
Br2102     Br  0.57761840  0.14155850  0.79524158    -0.00700
C2103       C  0.84703092  0.06428253  0.81879073    -0.01900
C2104       C  0.84361492  0.09798625  0.82414154     0.07800
C2105       C  0.86812427  0.12201653  0.81822298    -0.02000
C2106       C  0.89573372  0.11238958  0.80670203    -0.02000
C2107       C  0.89902305  0.07871974  0.80117785     0.08000
C2108       C  0.87457391  0.05466356  0.80731764    -0.02200
Br2109     Br  0.87808099  0.00846253  0.79983936    -0.00700
Br2110     Br  0.81393224  0.03126302  0.82737773    -0.00800
Br2111     Br  0.92846968  0.14541268  0.79786509    -0.00700
Br2112     Br  0.86336359  0.16820933  0.82562474    -0.00700
C2113       C  0.63555420  0.40128670  0.79959333    -0.01900
C2114       C  0.61152597  0.42641618  0.80327220     0.07800
C2115       C  0.61521768  0.44632535  0.82011006    -0.02000
C2116       C  0.64178053  0.43998428  0.83330965    -0.02000
C2117       C  0.66487470  0.41405184  0.82989897     0.08000
C2118       C  0.66197785  0.39498571  0.81290011    -0.02200
Br2119     Br  0.69388250  0.35969855  0.80804645    -0.00700
Br2120     Br  0.63196318  0.37487593  0.77639528    -0.00800
Br2121     Br  0.64741738  0.46756013  0.85597618    -0.00700
Br2122     Br  0.58627418  0.48418844  0.82496925    -0.00700
C2123       C  0.89798262  0.43477790  0.82474091    -0.01900
C2124       C  0.89955031  0.41825005  0.80667787     0.07800
C2125       C  0.87360145  0.39503181  0.80175212    -0.02000
C2126       C  0.84482698  0.39094308  0.81358952    -0.02000
C2127       C  0.84236803  0.40895123  0.83092291     0.08000
C2128       C  0.86913413  0.43057158  0.83655272    -0.02200
Br2129     Br  0.86552406  0.45547348  0.86032453    -0.00700
Br2130     Br  0.93440104  0.46352909  0.83387679    -0.00800
Br2131     Br  0.80882653  0.36042253  0.80609375    -0.00700
Br2132     Br  0.87857633  0.36679584  0.77940924    -0.00700
C2133       C  0.64440622  0.18899486  0.04683841    -0.01900
C2134       C  0.61898314  0.16491409  0.04254272     0.07800
C2135       C  0.62068702  0.13267005  0.05092212    -0.02000
C2136       C  0.64552765  0.12571325  0.06509379    -0.02000
C2137       C  0.66861107  0.15101250  0.07087117     0.08000
C2138       C  0.66889965  0.18223354  0.06114933    -0.02200
Br2139     Br  0.70178108  0.21632596  0.06813680    -0.00700
Br2140     Br  0.64517840  0.23165487  0.03329447    -0.00800
Br2141     Br  0.64759859  0.08185350  0.07698464    -0.00700
Br2142     Br  0.58766518  0.09887050  0.04393904    -0.00700
C2143       C  0.86692084  0.12197346  0.06859148    -0.01900
C2144       C  0.84227443  0.14648300  0.07234349     0.07800
C2145       C  0.84175256  0.17618985  0.06107266    -0.02000
C2146       C  0.86670349  0.18200966  0.04688601    -0.02000
C2147       C  0.89296722  0.15870272  0.04421841     0.08000
C2148       C  0.89239862  0.12823340  0.05467327    -0.02200
Br2149     Br  0.92827389  0.09646054  0.05107540    -0.00700
Br2150     Br  0.86624257  0.08019059  0.08286422    -0.00800
Br2151     Br  0.86591489  0.22292613  0.03163890    -0.00700
Br2152     Br  0.80819386  0.21006107  0.06590878    -0.00700
C2153       C  0.63995847  0.33782883  0.05035585    -0.01900
C2154       C  0.61203397  0.31759155  0.05623992     0.07800
C2155       C  0.61235358  0.30293319  0.07515778    -0.02000
C2156       C  0.64070381  0.30702155  0.08723921    -0.02000
C2157       C  0.66665540  0.32976580  0.08206397     0.08000
C2158       C  0.66623712  0.34527963  0.06361775    -0.02200
Br2159     Br  0.70144380  0.37720809  0.05662801    -0.00700
Br2160     Br  0.64419683  0.35368803  0.02400158    -0.00800
Br2161     Br  0.64410928  0.28132365  0.11110581    -0.00700
Br2162     Br  0.57347532  0.27934654  0.08614581    -0.00700
C2163       C  0.84706323  0.34870584  0.06724676    -0.01900
C2164       C  0.84283054  0.32961937  0.08428800     0.07800
C2165       C  0.86507633  0.30334896  0.08848883    -0.02000
C2166       C  0.89313525  0.29772455  0.07648300    -0.02000
C2167       C  0.89654752  0.31531308  0.05840749     0.08000
C2168       C  0.87214736  0.34015271  0.05370633    -0.02200
Br2169     Br  0.86971371  0.36115644  0.02849960    -0.00700
Br2170     Br  0.81894918  0.38746788  0.06290894    -0.00800
Br2171     Br  0.92714115  0.26745771  0.08665763    -0.00700
Br2172     Br  0.85677964  0.27505250  0.11096810    -0.00700
C2173       C  0.63947373  0.32033934  0.94757022    -0.01900
C2174       C  0.61267092  0.34212238  0.95204476     0.07800
C2175       C  0.61376043  0.37558717  0.94531988    -0.02000
C2176       C  0.63990428  0.38629883  0.93272760    -0.02000
C2177       C  0.66505747  0.36361566  0.92694988     0.08000
C2178       C  0.66529156  0.33084996  0.93483592    -0.02200
Br2179     Br  0.69975249  0.29949584  0.92729484    -0.00700
Br2180     Br  0.64095628  0.27586422  0.95896180    -0.00800
Br2181     Br  0.64076632  0.43168935  0.92281028    -0.00700
Br2182     Br  0.57842679  0.40613145  0.95237548    -0.00700
C2183       C  0.86370710  0.31245850  0.94524642    -0.01900
C2184       C  0.89088729  0.33405768  0.95055036     0.07800
C2185       C  0.89178266  0.36734595  0.94350858    -0.02000
C2186       C  0.86558020  0.37904970  0.93136566    -0.02000
C2187       C  0.83874141  0.35736233  0.92598592     0.08000
C2188       C  0.83782728  0.32407548  0.93293313    -0.02200
Br2189     Br  0.80229019  0.29372818  0.92441461    -0.00700
Br2190     Br  0.86214966  0.26636983  0.95424261    -0.00800
Br2191     Br  0.86713611  0.42432852  0.92126919    -0.00700
Br2192     Br  0.93071569  0.39572485  0.94860400    -0.00700
C2193       C  0.61103301  0.19315067  0.91881990    -0.01900
C2194       C  0.61114264  0.18128985  0.93833885     0.07800
C2195       C  0.63866823  0.16164274  0.94491216    -0.02000
C2196       C  0.66398084  0.15185480  0.93186833    -0.02000
C2197       C  0.66435588  0.16487388  0.91281870     0.08000
C2198       C  0.63849402  0.18648452  0.90659317    -0.02200
Br2199     Br  0.64120392  0.20772130  0.88130398    -0.00700
Br2200     Br  0.57298765  0.21697428  0.90762486    -0.00800
Br2201     Br  0.69761554  0.11967848  0.93999519    -0.00700
Br2202     Br  0.64438193  0.15045527  0.97196836    -0.00700
C2203       C  0.86736109  0.15674117  0.94778460    -0.01900
C2204       C  0.89593932  0.17406226  0.94012707     0.07800
C2205       C  0.89635617  0.18309556  0.92021964    -0.02000
C2206       C  0.86798021  0.17654843  0.90852765    -0.02000
C2207       C  0.84042837  0.15768555  0.91589123     0.08000
C2208       C  0.84033795  0.14736482  0.93547792    -0.02200
Br2209     Br  0.80343352  0.11999307  0.94540744    -0.00700
Br2210     Br  0.86334198  0.14785236  0.97520966    -0.00800
Br2211     Br  0.86646966  0.19451527  0.88239273    -0.00700
Br2212     Br  0.93620694  0.20267885  0.90799593    -0.00700
C2213       C  0.87858029  0.43887711  0.18653491    -0.01900
C2214       C  0.89693188  0.41715585  0.19890891     0.07800
C2215       C  0.88696902  0.38307929  0.20042397    -0.02000
C2216       C  0.85957742  0.37093354  0.18915421    -0.02000
C2217       C  0.84084311  0.39316586  0.17737588     0.08000
C2218       C  0.85000107  0.42724091  0.17641678    -0.02200
Br2219     Br  0.82349266  0.45791839  0.16082958    -0.00700
Br2220     Br  0.89319483  0.48462713  0.18254998    -0.00800
Br2221     Br  0.84742838  0.32397731  0.18973918    -0.00700
Br2222     Br  0.90868379  0.35351832  0.21879324    -0.00700
C2223       C  0.62168218  0.44068140  0.18088428    -0.01900
C2224       C  0.60739388  0.42128042  0.19606786     0.07800
C2225       C  0.62079536  0.38932840  0.20026487    -0.02000
C2226       C  0.64811686  0.37704481  0.18927610    -0.02000
C2227       C  0.66308156  0.39721236  0.17462211     0.08000
C2228       C  0.65015914  0.42939323  0.17080013    -0.02200
Br2229     Br  0.67174215  0.45824223  0.15171688    -0.00700
Br2230     Br  0.60141908  0.48252702  0.17325812    -0.00800
Br2231     Br  0.66556211  0.33287405  0.19448558    -0.00700
Br2232     Br  0.60319988  0.36310444  0.22161609    -0.00700
C2233       C  0.89704549  0.08083943  0.17718526    -0.01900
C2234       C  0.89673879  0.09219162  0.19636154     0.07800
C2235       C  0.87029447  0.11340509  0.20218301    -0.02000
C2236       C  0.84390840  0.12224632  0.18912710    -0.02000
C2237       C  0.84249011  0.10822202  0.17038757     0.08000
C2238       C  0.86931889  0.08704295  0.16466070    -0.02200
Br2239     Br  0.86735700  0.06416036  0.14020518    -0.00700
Br2240     Br  0.93657298  0.05791090  0.16795222    -0.00800
Br2241     Br  0.81008784  0.15397990  0.19692809    -0.00700
Br2242     Br  0.87061306  0.13065878  0.22805888    -0.00700
C2243       C  0.66010859  0.12191659  0.18738244    -0.01900
C2244       C  0.66068574  0.10941221  0.16828790     0.07800
C2245       C  0.63257960  0.08960069  0.16195911    -0.02000
C2246       C  0.60469016  0.08306666  0.17438299    -0.02000
C2247       C  0.60591588  0.09275240  0.19389158     0.08000
C2248       C  0.63377958  0.11229747  0.20027522    -0.02200
Br2249     Br  0.63582786  0.12589798  0.22684093    -0.00700
Br2250     Br  0.69464255  0.15329188  0.19583162    -0.00800
Br2251     Br  0.56415487  0.06137938  0.16469762    -0.00700
Br2252     Br  0.63273988  0.06912090  0.13675893    -0.00700
C2253       C  0.61714351  0.10984965  0.68508644    -0.01900
C2254       C  0.58191527  0.10126222  0.68523680     0.07800
C2255       C  0.55961144  0.12149190  0.67389211    -0.02000
C2256       C  0.57169557  0.15030583  0.66397177    -0.02000
C2257       C  0.60641930  0.15856698  0.66407407     0.08000
C2258       C  0.62907014  0.13837844  0.67466204    -0.02200
Br2259     Br  0.67686402  0.14971448  0.67429788    -0.00700
Br2260     Br  0.65063312  0.08090655  0.69673653    -0.00800
Br2261     Br  0.54077908  0.17850138  0.64945619    -0.00700
Br2262     Br  0.51254482  0.11011173  0.67019829    -0.00700
C2263       C  0.55823716  0.36259781  0.67976618    -0.01900
C2264       C  0.58038958  0.38639812  0.68850482     0.07800
C2265       C  0.61576556  0.38388782  0.68515175    -0.02000
C2266       C  0.62854022  0.35736089  0.67402150    -0.02000
C2267       C  0.60631353  0.33302990  0.66624372     0.08000
C2268       C  0.57121673  0.33556755  0.66929014    -0.02200
Br2269     Br  0.54076578  0.30247304  0.65818012    -0.00700
Br2270     Br  0.50979030  0.36727409  0.68061225    -0.00800
Br2271     Br  0.67652596  0.35477357  0.66872085    -0.00700
Br2272     Br  0.64678409  0.41884748  0.69330432    -0.00700
C2273       C  0.88040769  0.13755895  0.67575157    -0.01900
C2274       C  0.90509362  0.16327440  0.67430767     0.07800
C2275       C  0.93401128  0.16273035  0.68636289    -0.02000
C2276       C  0.93968346  0.13479065  0.69842892    -0.02000
C2277       C  0.91746441  0.10696724  0.69752058     0.08000
C2278       C  0.88696260  0.10896882  0.68705657    -0.02200
Br2279     Br  0.85539972  0.07164382  0.68728076    -0.00700
Br2280     Br  0.83790190  0.14145259  0.66210186    -0.00800
Br2281     Br  0.97759862  0.13430319  0.71623899    -0.00700
Br2282     Br  0.96640797  0.19931492  0.68565765    -0.00700
C2283       C  0.86511269  0.36083665  0.67622465    -0.01900
C2284       C  0.88693734  0.33313745  0.67463492     0.07800
C2285       C  0.91575627  0.33090955  0.68688166    -0.02000
C2286       C  0.92279053  0.35656291  0.70006231    -0.02000
C2287       C  0.90461029  0.38653116  0.69898055     0.08000
C2288       C  0.87497397  0.38834374  0.68762022    -0.02200
Br2289     Br  0.84949839  0.42927251  0.68660345    -0.00700
Br2290     Br  0.82275944  0.36177255  0.66208769    -0.00800
Br2291     Br  0.45771526  0.35043028  0.71962910    -0.00700
Br2292     Br  0.44802264  0.29490956  0.68402375    -0.00700
C2293       C  0.88926454  0.12801837  0.54756911    -0.01900
C2294       C  0.86678853  0.10314863  0.55492988     0.07800
C2295       C  0.85747426  0.10399763  0.57463967    -0.02000
C2296       C  0.86404533  0.13269969  0.58547422    -0.02000
C2297       C  0.88577358  0.15809091  0.57815686     0.08000
C2298       C  0.89993471  0.15470149  0.55952768    -0.02200
Br2299     Br  0.93296043  0.18708815  0.55024584    -0.00700
Br2300     Br  0.90441748  0.12667050  0.52108514    -0.00800
Br2301     Br  0.83977429  0.13824591  0.60945627    -0.00700
Br2302     Br  0.83840957  0.06507987  0.58782436    -0.00700
C2303       C  0.88047263  0.38206671  0.55609546    -0.01900
C2304       C  0.84637275  0.38935808  0.55157614     0.07800
C2305       C  0.82042869  0.36630039  0.55690743    -0.02000
C2306       C  0.82782255  0.33928672  0.56932288    -0.02000
C2307       C  0.86177426  0.33274225  0.57441293     0.08000
C2308       C  0.88818770  0.35266615  0.56652866    -0.02200
Br2309     Br  0.93487538  0.34045532  0.57098642    -0.00700
Br2310     Br  0.91644465  0.41363090  0.54997472    -0.00800
Br2311     Br  0.79119041  0.31241334  0.58006917    -0.00700
Br2312     Br  0.77511422  0.37006462  0.54640510    -0.00700
C2313       C  0.66526266  0.16550789  0.55234022    -0.01900
C2314       C  0.67536466  0.16553259  0.57199770     0.07800
C2315       C  0.69540384  0.13923134  0.57921976    -0.02000
C2316       C  0.70240310  0.11159947  0.56759648    -0.02000
C2317       C  0.69448994  0.11235448  0.54746734     0.08000
C2318       C  0.67657516  0.14012543  0.53985586    -0.02200
Br2319     Br  0.66947995  0.14537733  0.51235909    -0.00700
Br2320     Br  0.63530913  0.19977200  0.54254923    -0.00800
Br2321     Br  0.72045567  0.07220176  0.58054083    -0.00700
Br2322     Br  0.71452293  0.14144552  0.60506781    -0.00700
C2323       C  0.69030954  0.36897886  0.58190024    -0.01900
C2324       C  0.67274543  0.34134484  0.57397983     0.07800
C2325       C  0.66348221  0.34235513  0.55417609    -0.02000
C2326       C  0.67393621  0.36960759  0.54225708    -0.02000
C2327       C  0.68907988  0.39844643  0.55062133     0.08000
C2328       C  0.69521958  0.39836269  0.57087088    -0.02200
Br2329     Br  0.70768864  0.43889848  0.58446994    -0.00700
Br2330     Br  0.70931702  0.36633996  0.60773010    -0.00800
Br2331     Br  0.66973295  0.36530878  0.51457158    -0.00700
Br2332     Br  0.63538500  0.30717705  0.54339365    -0.00700
C2333       C  0.58613624  0.14121743  0.33755314    -0.01900
C2334       C  0.61080590  0.16408735  0.33043462     0.07800
C2335       C  0.62775881  0.15707132  0.31301148    -0.02000
C2336       C  0.61821956  0.12870459  0.30211240    -0.02000
C2337       C  0.59247020  0.10678882  0.30885817     0.08000
C2338       C  0.57807601  0.11214804  0.32710939    -0.02200
Br2339     Br  0.54905231  0.07814766  0.33824852    -0.00700
Br2340     Br  0.56269644  0.15005921  0.36143663    -0.00800
Br2341     Br  0.64051205  0.11957296  0.27811124    -0.00700
Br2342     Br  0.66429089  0.18601847  0.30432176    -0.00700
C2343       C  0.59072329  0.36757059  0.33661652    -0.01900
C2344       C  0.61204997  0.34249108  0.32919795     0.07800
C2345       C  0.62535587  0.34651104  0.31034101    -0.02000
C2346       C  0.61632263  0.37460801  0.29885285    -0.02000
C2347       C  0.59545443  0.39979017  0.30644121     0.08000
C2348       C  0.58353171  0.39649248  0.32551970    -0.02200
Br2349     Br  0.55735792  0.43208657  0.33639493    -0.00700
Br2350     Br  0.56983521  0.36166822  0.36168764    -0.00800
Br2351     Br  0.63207168  0.37844883  0.27257283    -0.00700
Br2352     Br  0.65631123  0.31384943  0.30031874    -0.00700
C2353       C  0.66377691  0.11156114  0.43873686    -0.01900
C2354       C  0.69887028  0.10994167  0.44305834     0.07800
C2355       C  0.72015687  0.13740249  0.43808449    -0.02000
C2356       C  0.70722376  0.16522818  0.42804146    -0.02000
C2357       C  0.67263067  0.16617746  0.42304282     0.08000
C2358       C  0.65076492  0.13960512  0.42867937    -0.02200
Br2359     Br  0.60330984  0.14108038  0.42164346    -0.00700
Br2360     Br  0.63370291  0.07454725  0.44512986    -0.00800
Br2361     Br  0.73759527  0.20108807  0.41983711    -0.00700
Br2362     Br  0.76719016  0.13789178  0.44516279    -0.00700
C2363       C  0.70892404  0.34127342  0.42820834    -0.01900
C2364       C  0.67505797  0.33986267  0.42178841     0.07800
C2365       C  0.65209369  0.36475243  0.42747294    -0.02000
C2366       C  0.66336838  0.39185540  0.43888543    -0.02000
C2367       C  0.69766368  0.39387318  0.44484760     0.08000
C2368       C  0.71988584  0.36765286  0.44005606    -0.02200
Br2369     Br  0.76527496  0.36665312  0.45021076    -0.00700
Br2370     Br  0.74091746  0.30806598  0.41977994    -0.00800
Br2371     Br  0.63221524  0.42704402  0.44511702    -0.00700
Br2372     Br  0.60541997  0.36204745  0.41899012    -0.00700
C2373       C  0.88072480  0.15482654  0.31537470    -0.01900
C2374       C  0.90009249  0.16167870  0.33216162     0.07800
C2375       C  0.92565866  0.13890931  0.33787098    -0.02000
C2376       C  0.93143053  0.10991881  0.32703659    -0.02000
C2377       C  0.91491536  0.10521155  0.30927193     0.08000
C2378       C  0.88886399  0.12721195  0.30366291    -0.02200
Br2379     Br  0.86424009  0.11908830  0.28007974    -0.00700
Br2380     Br  0.84275250  0.18273175  0.30863903    -0.00800
Br2381     Br  0.96015867  0.07505575  0.33695661    -0.00700
Br2382     Br  0.95457731  0.14813756  0.35979123    -0.00700
C2383       C  0.92738503  0.36202186  0.33743259    -0.01900
C2384       C  0.89974249  0.34165381  0.33155674     0.07800
C2385       C  0.88087240  0.35112756  0.31498646    -0.02000
C2386       C  0.89073840  0.37973203  0.30391693    -0.02000
C2387       C  0.91847148  0.39989911  0.30990086     0.08000
C2388       C  0.93554634  0.39165011  0.32718844    -0.02200
Br2389     Br  0.96984436  0.42173582  0.33707356    -0.00700
Br2390     Br  0.95595849  0.34810602  0.35872721    -0.00800
Br2391     Br  0.86727265  0.39056454  0.28020102    -0.00700
Br2392     Br  0.84189614  0.32471209  0.30740828    -0.00700
C2393       C  0.86133240  0.16464635  0.44458594    -0.01900
C2394       C  0.88605324  0.16504085  0.42979856     0.07800
C2395       C  0.90896509  0.13823588  0.42848686    -0.02000
C2396       C  0.90293160  0.10860720  0.43912539    -0.02000
C2397       C  0.87572775  0.10705223  0.45217044     0.08000
C2398       C  0.85770453  0.13610823  0.45651168    -0.02200
Br2399     Br  0.82955519  0.13659184  0.47932013    -0.00700
Br2400     Br  0.83082887  0.20161159  0.44777424    -0.00800
Br2401     Br  0.93133996  0.07011004  0.43572418    -0.00700
Br2402     Br  0.94832395  0.14224847  0.41213971    -0.00700
C2403       C  0.90034807  0.36768040  0.42654014    -0.01900
C2404       C  0.88035717  0.33819555  0.42852327     0.07800
C2405       C  0.85781502  0.33494869  0.44437730    -0.02000
C2406       C  0.85460177  0.36152296  0.45738149    -0.02000
C2407       C  0.86932501  0.39274955  0.45286443     0.08000
C2408       C  0.89351529  0.39556194  0.43806901    -0.02200
Br2409     Br  0.91710212  0.43758843  0.43373961    -0.00700
Br2410     Br  0.93698323  0.36998743  0.40816667    -0.00800
Br2411     Br  0.83137516  0.35533141  0.48174417    -0.00700
Br2412     Br  0.82871361  0.29607997  0.44752719    -0.00700
N2413       N  0.88512491  0.80136010  0.37882904    -0.36600
N2414       N  0.88752429  0.75135980  0.34878048    -0.57200
N2415       N  0.88788850  0.70161227  0.37965172    -0.36600
N2416       N  0.88577959  0.75169980  0.40896597    -0.57200
C2417       C  0.87741163  0.81924668  0.36272757     0.27000
C2418       C  0.87464956  0.81911372  0.39424477     0.27000
C2419       C  0.88058161  0.68303223  0.36391838     0.27000
C2420       C  0.87855651  0.68339083  0.39541614     0.27000
C2421       C  0.89690403  0.77891405  0.33842476     0.35600
C2422       C  0.89801558  0.72429516  0.33888432     0.35600
C2423       C  0.89300470  0.77910460  0.41943362     0.35600
C2424       C  0.89454774  0.72507558  0.41990021     0.35600
C2425       C  0.86131750  0.84853859  0.36788088    -0.21900
C2426       C  0.85915547  0.84826458  0.38780120    -0.21900
C2427       C  0.86582815  0.65282003  0.36968022    -0.21900
C2428       C  0.86435364  0.65312048  0.38960133    -0.21900
C2429       C  0.91289977  0.76934135  0.32156181    -0.23000
C2430       C  0.91358004  0.73464496  0.32184385    -0.23000
C2431       C  0.90686842  0.76996545  0.43717161    -0.23000
C2432       C  0.90777071  0.73545091  0.43748378    -0.23000
C2433       C  0.88997890  0.81226127  0.34408065    -0.18300
C2434       C  0.88300257  0.81149895  0.41377610    -0.18300
C2435       C  0.88663139  0.69193895  0.41474771    -0.18300
C2436       C  0.89222483  0.69062533  0.34503407    -0.18300
H2437       H  0.85327678  0.86860270  0.35830625     0.14600
H2438       H  0.84901438  0.86810025  0.39656233     0.14600
H2439       H  0.85832816  0.63216278  0.36051201     0.14600
H2440       H  0.85532117  0.63276912  0.39877589     0.14600
H2441       H  0.92294076  0.78560573  0.31027630     0.12900
H2442       H  0.92426085  0.71888806  0.31081817     0.12900
H2443       H  0.91425346  0.78634865  0.44887832     0.12900
H2444       H  0.91599263  0.71979800  0.44946095     0.12900
H2445       H  0.90168315  0.78120671  0.37930336     0.26100
H2446       H  0.90342958  0.72290509  0.37969635     0.26100
N2447       N  0.64296135  0.80361126  0.37522139    -0.36600
N2448       N  0.62623002  0.75330815  0.34689307    -0.57200
N2449       N  0.64075888  0.70253256  0.37611643    -0.36600
N2450       N  0.65734835  0.75291421  0.40404496    -0.57200
C2451       C  0.64258118  0.82180096  0.35859804     0.27000
C2452       C  0.66067674  0.82159235  0.38840934     0.27000
C2453       C  0.64043297  0.68443200  0.35970966     0.27000
C2454       C  0.65698375  0.68407967  0.38973013     0.27000
C2455       C  0.61287675  0.78051774  0.33798547     0.35600
C2456       C  0.61273382  0.72598870  0.33821546     0.35600
C2457       C  0.65932453  0.78014601  0.41539153     0.35600
C2458       C  0.65741801  0.72588266  0.41593338     0.35600
C2459       C  0.66057722  0.85151572  0.36116468    -0.21900
C2460       C  0.67206400  0.85136540  0.37999722    -0.21900
C2461       C  0.65671289  0.65421262  0.36287992    -0.21900
C2462       C  0.66726333  0.65401786  0.38183750    -0.21900
C2463       C  0.59081066  0.77044610  0.32343337    -0.23000
C2464       C  0.59085076  0.73579171  0.32352170    -0.23000
C2465       C  0.66059005  0.77044191  0.43470728    -0.23000
C2466       C  0.65937669  0.73591083  0.43504884    -0.23000
C2467       C  0.62276372  0.81400546  0.34210409    -0.18300
C2468       C  0.66403141  0.81314476  0.40825008    -0.18300
C2469       C  0.66057591  0.69267807  0.40941130    -0.18300
C2470       C  0.62182679  0.69261275  0.34286794    -0.18300
H2471       H  0.66413022  0.87165290  0.35071976     0.14600
H2472       H  0.68631571  0.87134080  0.38687611     0.14600
H2473       H  0.65977091  0.63399667  0.35272926     0.14600
H2474       H  0.68029023  0.63367917  0.38909081     0.14600
H2475       H  0.57672279  0.78637772  0.31358261     0.12900
H2476       H  0.57670902  0.71968941  0.31380911     0.12900
H2477       H  0.66338448  0.78649171  0.44715658     0.12900
H2478       H  0.66115991  0.72000722  0.44779217     0.12900
H2479       H  0.62782144  0.78262581  0.37815259     0.26100
H2480       H  0.62660649  0.72394054  0.37855255     0.26100
C2481       C  0.71177926  0.92458475  0.45410970     0.42400
N2482       N  0.72072576  0.96570939  0.47340160     0.01300
C2483       C  0.87113848  0.55905294  0.47776389    -0.06500
H2484       H  0.88553693  0.93234843  0.48963872     0.06800
C2485       C  0.80888986  0.94260954  0.54886272    -0.06900
Co2486     Co  0.78589980  0.50152178  0.46303269     0.74200
N2487       N  0.84317935  0.96360587  0.48157777    -0.26100
Co2488     Co  0.84159010  0.50042835  0.50226288     0.74100
C2489       C  0.83736583  0.92217857  0.54315276     0.43000
N2490       N  0.73474354  0.96905385  0.53102528     0.01000
N2491       N  0.83431762  0.96469614  0.52411359     0.01100
N2492       N  0.83418209  0.56003903  0.45260919    -0.46900
H2493       H  0.76018291  0.93687719  0.43681057     0.06800
N2494       N  0.82239240  0.96398390  0.46653222     0.01300
N2495       N  0.83901551  0.53809160  0.52292364     0.01100
C2496       C  0.84874610  0.57927399  0.54196031     0.42700
N2497       N  0.71253519  0.96792569  0.51675440    -0.25500
C2498       C  0.74506222  0.56263609  0.44706212    -0.06400
N2499       N  0.69886310  0.94102688  0.46945360    -0.46600
N2500       N  0.86251298  0.56072948  0.52772964    -0.46900
C2501       C  0.71349668  0.57944747  0.45212092     0.42500
N2502       N  0.82546308  0.53682181  0.46552475     0.01300
N2503       N  0.71448425  0.54168256  0.51496634    -0.25500
N2504       N  0.74699840  0.96615630  0.46154950    -0.26000
N2505       N  0.73797054  0.54234582  0.52853254     0.01000
H2506       H  0.67121925  0.57333450  0.50942926     0.06900
H2507       H  0.79588095  0.57410761  0.55559282     0.06900
N2508       N  0.84675663  0.53578871  0.48033422    -0.26100
N2509       N  0.80849426  0.96773816  0.53598231    -0.25700
N2510       N  0.72235936  0.53914037  0.47222596     0.01300
C2511       C  0.85559600  0.92298343  0.46158122     0.42700
C2512       C  0.69051650  0.94248008  0.52039633    -0.07000
N2513       N  0.81129540  0.54052554  0.53333697    -0.25700
H2514       H  0.79102510  0.93879512  0.56054491     0.06900
N2515       N  0.82895156  0.93983776  0.45416034    -0.46900
H2516       H  0.66847955  0.93646812  0.51168102     0.06900
C2517       C  0.70819130  0.58569302  0.53473208     0.42600
C2518       C  0.74319266  0.94169511  0.44869650    -0.06400
Co2519     Co  0.71634328  0.50347179  0.49423618     0.73800
N2520       N  0.72971807  0.94532386  0.54413272    -0.46600
C2521       C  0.86306889  0.57456683  0.45923997     0.42800
N2522       N  0.70082199  0.56336694  0.46782497    -0.46600
Co2523     Co  0.77291961  0.50504224  0.53243553     0.73900
C2524       C  0.81451457  0.56648679  0.54513699    -0.07000
C2525       C  0.86505392  0.93835778  0.47977704    -0.06500
N2526       N  0.74877450  0.53849590  0.46049110    -0.26000
N2527       N  0.85239172  0.93750846  0.52781928    -0.46800
H2528       H  0.89188352  0.56429887  0.48761141     0.06800
C2529       C  0.69387867  0.56808745  0.51774340    -0.06900
Cl2530     Cl  0.77916562  0.50256586  0.49791710    -0.49900
C2531       C  0.70225590  0.92731506  0.53878347     0.42600
H2532       H  0.76181161  0.56709102  0.43491528     0.06800
N2533       N  0.73553316  0.56817077  0.54005022    -0.46600
N2534       N  0.87492639  0.79794881  0.62432552    -0.36600
N2535       N  0.88379065  0.74802311  0.59441050    -0.57200
N2536       N  0.89719863  0.69988488  0.62465098    -0.36600
N2537       N  0.88806496  0.74846796  0.65395493    -0.57200
C2538       C  0.87792673  0.81716116  0.60817912     0.27000
C2539       C  0.88346121  0.81739562  0.63959200     0.27000
C2540       C  0.90702751  0.68328642  0.60874103     0.27000
C2541       C  0.90981021  0.68342758  0.64022684     0.27000
C2542       C  0.86916837  0.77262916  0.58389624     0.35600
C2543       C  0.87938212  0.71946379  0.58435040     0.35600
C2544       C  0.87732784  0.77382415  0.66492325     0.35600
C2545       C  0.88742231  0.72083825  0.66525740     0.35600
C2546       C  0.88776186  0.84941294  0.61327877    -0.21900
C2547       C  0.89208353  0.84932030  0.63302169    -0.21900
C2548       C  0.92682509  0.65622177  0.61420104    -0.21900
C2549       C  0.92864005  0.65633504  0.63414682    -0.21900
C2550       C  0.85622423  0.75990554  0.56676228    -0.23000
C2551       C  0.86201037  0.72597920  0.56725588    -0.23000
C2552       C  0.86941209  0.76228109  0.68337722    -0.23000
C2553       C  0.87582889  0.72844400  0.68358495    -0.23000
C2554       C  0.86964027  0.80664077  0.58921987    -0.18300
C2555       C  0.88115733  0.80758299  0.65932871    -0.18300
C2556       C  0.90086290  0.69003466  0.65960086    -0.18300
C2557       C  0.89245644  0.68812658  0.59022203    -0.18300
H2558       H  0.89146146  0.87096528  0.60387795     0.14600
H2559       H  0.89974240  0.87069667  0.64157111     0.14600
H2560       H  0.93706724  0.63727423  0.60484099     0.14600
H2561       H  0.94093218  0.63768889  0.64316163     0.14600
H2562       H  0.84378875  0.77352733  0.55517157     0.12900
H2563       H  0.85484013  0.70836264  0.55612553     0.12900
H2564       H  0.86164782  0.77703389  0.69561300     0.12900
H2565       H  0.87369193  0.71173649  0.69597427     0.12900
H2566       H  0.86396931  0.77409165  0.62495586     0.26100
H2567       H  0.87781784  0.71736423  0.62496370     0.26100
N2568       N  0.64229891  0.69877549  0.61863941    -0.36600
N2569       N  0.62456102  0.74714959  0.64725965    -0.57200
N2570       N  0.64190146  0.80020618  0.61982038    -0.36600
N2571       N  0.65960973  0.75192675  0.59099789    -0.57200
C2572       C  0.62516300  0.67893254  0.63139549     0.27000
C2573       C  0.64390423  0.68205124  0.60172590     0.27000
C2574       C  0.62389382  0.81716216  0.63307249     0.27000
C2575       C  0.64245843  0.81907648  0.60339830     0.27000
C2576       C  0.62167273  0.71925560  0.65844511     0.35600
C2577       C  0.62207068  0.77368939  0.65912503     0.35600
C2578       C  0.67442626  0.72555592  0.58255416     0.35600
C2579       C  0.67389450  0.77979254  0.58313142     0.35600
C2580       C  0.61592186  0.64917619  0.62246972    -0.21900
C2581       C  0.62747750  0.65126666  0.60372452    -0.21900
C2582       C  0.61277716  0.84709132  0.62496428    -0.21900
C2583       C  0.62429236  0.84818130  0.60619585    -0.21900
C2584       C  0.61729638  0.72808194  0.67760669    -0.23000
C2585       C  0.61767299  0.76263455  0.67805114    -0.23000
C2586       C  0.69851543  0.73664274  0.56929046    -0.23000
C2587       C  0.69817949  0.77117567  0.56966352    -0.23000
C2588       C  0.61918236  0.68630091  0.65113301    -0.18300
C2589       C  0.66383378  0.69198210  0.58554516    -0.18300
C2590       C  0.66263148  0.81250644  0.58696244    -0.18300
C2591       C  0.61908574  0.80730852  0.65263417    -0.18300
H2592       H  0.60263782  0.62790332  0.62883595     0.14600
H2593       H  0.62515941  0.63180751  0.59298701     0.14600
H2594       H  0.59829989  0.86642200  0.63192904     0.14600
H2595       H  0.62072063  0.86860658  0.59598131     0.14600
H2596       H  0.61318187  0.71140925  0.68985352     0.12900
H2597       H  0.61372781  0.77785613  0.69070125     0.12900
H2598       H  0.71406174  0.72146969  0.56001980     0.12900
H2599       H  0.71340342  0.78796775  0.56075950     0.12900
H2600       H  0.65600660  0.72043379  0.62195393     0.26100
H2601       H  0.65673218  0.77926156  0.62265761     0.26100
C2602       C  0.93074160  0.58226236  0.29525328     0.42400
N2603       N  0.96396851  0.56592588  0.27282593     0.01300
C2604       C  0.95685132  0.92191336  0.21786704    -0.06500
H2605       H  0.98160248  0.89405535  0.28695833     0.06800
C2606       C  0.59071863  0.95874200  0.28706354    -0.06900
Co2607     Co  0.94130384  0.00221104  0.25445419     0.74200
N2608       N  0.97028679  0.94133459  0.27323681    -0.26100
Co2609     Co  0.50645687  0.94394138  0.25162028     0.74100
C2610       C  0.57956320  0.92494776  0.29337755     0.42600
N2611       N  0.56330135  0.54684175  0.27397738     0.01000
N2612       N  0.54452113  0.94411172  0.27234144     0.01100
N2613       N  0.91530231  0.95959760  0.22228423    -0.46900
H2614       H  0.89718525  0.53469166  0.29273896     0.06800
N2615       N  0.94538662  0.96299327  0.27517044     0.01300
N2616       N  0.54497971  0.94786624  0.23047426     0.01100
C2617       C  0.58340446  0.93801646  0.20926184     0.42700
N2618       N  0.53863771  0.56892013  0.27228510    -0.25500
C2619       C  0.91140495  0.54450065  0.22113863    -0.06400
N2620       N  0.95818323  0.59093080  0.28472924    -0.46600
N2621       N  0.55409222  0.92582460  0.21714273    -0.46900
C2622       C  0.91928684  0.57570419  0.21105814     0.42500
N2623       N  0.94166609  0.96585418  0.23348352     0.01300
N2624       N  0.53995106  0.56706419  0.22990096    -0.25500
N2625       N  0.94208966  0.54076056  0.27495833    -0.26000
N2626       N  0.56507641  0.54551707  0.23182343     0.01000
H2627       H  0.53410207  0.61055817  0.21110251     0.06900
H2628       H  0.61513914  0.98364600  0.21832405     0.06900
N2629       N  0.96665153  0.94439916  0.23130593    -0.26100
N2630       N  0.56704625  0.96876638  0.27403526    -0.25700
N2631       N  0.96030711  0.56382034  0.23074547     0.01300
C2632       C  0.93504826  0.92374726  0.29605695     0.42700
C2633       C  0.54320933  0.59286314  0.28541685    -0.07000
N2634       N  0.56752030  0.97246588  0.23213028    -0.25700
H2635       H  0.61418375  0.97189417  0.29030794     0.06900
N2636       N  0.92292533  0.95286108  0.28847020    -0.46900
H2637       H  0.52789303  0.61502486  0.28685762     0.06900
C2638       C  0.58144038  0.57720183  0.20812742     0.42600
C2639       C  0.91969293  0.54894372  0.28881501    -0.06400
Co2640     Co  0.50084050  0.56689473  0.25110610     0.73800
N2641       N  0.58593787  0.55547550  0.28745819    -0.46600
C2642       C  0.92264773  0.93249409  0.21186771     0.42800
N2643       N  0.94995773  0.58663275  0.21778531    -0.46600
Co2644     Co  0.56626195  0.00848346  0.25334400     0.73900
C2645       C  0.59225493  0.96847896  0.21933484    -0.07000
C2646       C  0.96615098  0.91625537  0.28597397    -0.06500
N2647       N  0.93774802  0.53926714  0.23304917    -0.26000
N2648       N  0.55096763  0.91794661  0.28358077    -0.46800
H2649       H  0.97072656  0.89978737  0.21391786     0.06800
C2650       C  0.54825407  0.58856642  0.21530777    -0.06900
Cl2651     Cl  0.50379443  0.00542415  0.25265825    -0.49900
C2652       C  0.57417730  0.58396410  0.29549977     0.42600
H2653       H  0.88839595  0.52947313  0.22061506     0.06800
N2654       N  0.58992391  0.55070259  0.21924490    -0.46600
C2655       C  0.92101207  0.81947453  0.96010362     0.42400
N2656       N  0.96403232  0.81036793  0.97853296     0.01300
C2657       C  0.56722980  0.67263945  0.96778648    -0.06500
H2658       H  0.93660302  0.64357220  0.97521315     0.06800
C2659       C  0.94356889  0.69914802  0.04352027    -0.06900
Co2660     Co  0.50299011  0.75393420  0.96304302     0.74200
N2661       N  0.96729593  0.68869113  0.97373586    -0.26100
Co2662     Co  0.50466236  0.68640053  0.99512811     0.74100
C2663       C  0.92510072  0.67097472  0.03578649     0.42600
N2664       N  0.96634277  0.77799463  0.03350380     0.01000
N2665       N  0.96702882  0.68258964  0.01701584     0.01100
N2666       N  0.56558779  0.71933238  0.94921237    -0.46900
H2667       H  0.93613797  0.77857533  0.93898221     0.06800
N2668       N  0.96676617  0.71503380  0.96207977     0.01300
N2669       N  0.54287682  0.68574418  0.01651227     0.01100
C2670       C  0.58676352  0.67688345  0.03416751     0.42700
N2671       N  0.96566379  0.80466883  0.02216092    -0.25500
C2672       C  0.56342527  0.79897009  0.95193298    -0.06400
N2673       N  0.93730103  0.83021642  0.97632566    -0.46600
N2674       N  0.57005532  0.66630443  0.01809151    -0.46900
C2675       C  0.58098302  0.82773080  0.95996051     0.42500
N2676       N  0.54085493  0.71872676  0.96197607     0.01300
N2677       N  0.54023979  0.80763389  0.02167435    -0.25500
N2678       N  0.96573610  0.78807899  0.96460598    -0.26000
N2679       N  0.54069960  0.78061308  0.03276926     0.01000
H2680       H  0.57204641  0.85214806  0.02111492     0.06900
H2681       H  0.57250424  0.71754324  0.05557839     0.06900
N2682       N  0.54132665  0.69200929  0.97334705    -0.26100
N2683       N  0.96836186  0.70494883  0.03092228    -0.25700
N2684       N  0.53925251  0.81433243  0.97842485     0.01300
C2685       C  0.92426859  0.68522300  0.95275400     0.42700
C2686       C  0.94045539  0.82449227  0.02826264    -0.07000
N2687       N  0.54145608  0.70786890  0.03050674    -0.25700
H2688       H  0.93882895  0.71320221  0.05648402     0.06900
N2689       N  0.94140657  0.71405688  0.94962508    -0.46900
H2690       H  0.93622348  0.84952175  0.02278063     0.06900
C2691       C  0.58402700  0.80866969  0.04268937     0.42600
C2692       C  0.94025530  0.79237723  0.95218667    -0.06400
Co2693     Co  0.50225835  0.81115860  0.00029284     0.73800
N2694       N  0.94229289  0.77786237  0.04667531    -0.46600
C2695       C  0.58352222  0.69120528  0.95167660     0.42800
N2696       N  0.56466955  0.83635398  0.97639464    -0.46600
Co2697     Co  0.50429416  0.74344741  0.03215480     0.73900
C2698       C  0.56752969  0.70360029  0.04252696    -0.07000
C2699       C  0.94156631  0.66798141  0.96881922    -0.06500
N2700       N  0.53856101  0.79212244  0.96441503    -0.26000
N2701       N  0.94081553  0.66143406  0.01925932    -0.46800
H2702       H  0.57259672  0.64802058  0.97362811     0.06800
C2703       C  0.56665712  0.82745937  0.02700079    -0.06900
Cl2704     Cl  0.50350221  0.74874591  0.99763882    -0.49900
C2705       C  0.92447083  0.80619618  0.04471040     0.42600
H2706       H  0.56870512  0.78531666  0.93886837     0.06800
N2707       N  0.56636362  0.78011171  0.04490756    -0.46600
N2708       N  0.70082391  0.89173726  0.87868141    -0.36600
N2709       N  0.75282746  0.90253457  0.84965338    -0.57200
N2710       N  0.80357754  0.88676392  0.87831702    -0.36600
N2711       N  0.75218088  0.87655957  0.90710151    -0.57200
C2712       C  0.68238856  0.89098398  0.86213139     0.27000
C2713       C  0.68200015  0.87664680  0.89269895     0.27000
C2714       C  0.82117125  0.88426653  0.86168472     0.27000
C2715       C  0.82094404  0.86972019  0.89206101     0.27000
C2716       C  0.72590267  0.91561970  0.84027130     0.35600
C2717       C  0.78084063  0.91364039  0.84027001     0.35600
C2718       C  0.72509066  0.87851754  0.91885691     0.35600
C2719       C  0.77986504  0.87590414  0.91861845     0.35600
C2720       C  0.65133999  0.87537368  0.86566305    -0.21900
C2721       C  0.65112759  0.86623172  0.88497062    -0.21900
C2722       C  0.84995981  0.86522806  0.86481753    -0.21900
C2723       C  0.84980389  0.85599244  0.88405766    -0.21900
C2724       C  0.73678661  0.93532329  0.82478875    -0.23000
C2725       C  0.77178299  0.93414433  0.82482758    -0.23000
C2726       C  0.73558434  0.87951786  0.93802200    -0.23000
C2727       C  0.77045592  0.87781562  0.93786511    -0.23000
C2728       C  0.69188099  0.90680327  0.84448350    -0.18300
C2729       C  0.69130583  0.87416424  0.91249447    -0.18300
C2730       C  0.81268722  0.86884235  0.91190487    -0.18300
C2731       C  0.81387358  0.90229169  0.84453604    -0.18300
H2732       H  0.63077778  0.87149700  0.85546355     0.14600
H2733       H  0.63038836  0.85386902  0.89252908     0.14600
H2734       H  0.86952207  0.85946325  0.85444784     0.14600
H2735       H  0.86915734  0.84157679  0.89142223     0.14600
H2736       H  0.72113624  0.94842849  0.81432753     0.12900
H2737       H  0.78854640  0.94607822  0.81439170     0.12900
H2738       H  0.71970510  0.87984915  0.95076600     0.12900
H2739       H  0.78686749  0.87662310  0.95044565     0.12900
H2740       H  0.72317682  0.90540606  0.88078482     0.26100
H2741       H  0.78364570  0.90311643  0.88072347     0.26100
N2742       N  0.80373241  0.62791146  0.86955332    -0.36600
N2743       N  0.75218623  0.64891186  0.89576507    -0.57200
N2744       N  0.70187669  0.63446480  0.86643962    -0.36600
N2745       N  0.75417553  0.61412923  0.84016530    -0.57200
C2746       C  0.82025619  0.62714526  0.88670978     0.27000
C2747       C  0.82216075  0.61000681  0.85699793     0.27000
C2748       C  0.68290182  0.63631283  0.88265114     0.27000
C2749       C  0.68361423  0.61685642  0.85333664     0.27000
C2750       C  0.77987955  0.66115319  0.90486039     0.35600
C2751       C  0.72535306  0.66502680  0.90303371     0.35600
C2752       C  0.78246197  0.61236774  0.82927010     0.35600
C2753       C  0.72748212  0.61419444  0.82787260     0.35600
C2754       C  0.84928397  0.60800760  0.88514855    -0.21900
C2755       C  0.85059518  0.59731457  0.86629115    -0.21900
C2756       C  0.65219910  0.61968046  0.87986005    -0.21900
C2757       C  0.65264662  0.60736310  0.86131907    -0.21900
C2758       C  0.77076907  0.68555219  0.91793666    -0.23000
C2759       C  0.73594321  0.68795783  0.91681130    -0.23000
C2760       C  0.77379375  0.61136879  0.80982938    -0.23000
C2761       C  0.73882458  0.61250142  0.80893761    -0.23000
C2762       C  0.81250750  0.64786201  0.90248882    -0.18300
C2763       C  0.81535465  0.60773672  0.83701063    -0.18300
C2764       C  0.69327498  0.61158875  0.83391973    -0.18300
C2765       C  0.69156961  0.65550720  0.89906431    -0.18300
H2766       H  0.86834228  0.60363674  0.89618837     0.14600
H2767       H  0.87066094  0.58270523  0.86000215     0.14600
H2768       H  0.63137017  0.61733359  0.88997475     0.14600
H2769       H  0.63224155  0.59355991  0.85437814     0.14600
H2770       H  0.78730383  0.69932955  0.92763609     0.12900
H2771       H  0.72015438  0.70384576  0.92553571     0.12900
H2772       H  0.79077677  0.60884880  0.79766705     0.12900
H2773       H  0.72348110  0.61106199  0.79594051     0.12900
H2774       H  0.78417418  0.64410072  0.86579695     0.26100
H2775       H  0.72407458  0.64809388  0.86367095     0.26100
C2776       C  0.92112692  0.91725659  0.70597568     0.42400
N2777       N  0.93651817  0.95824720  0.72365299     0.01300
C2778       C  0.58142785  0.55667450  0.71496940    -0.06500
H2779       H  0.60195933  0.92374955  0.72633171     0.06800
C2780       C  0.54929718  0.94244422  0.79353635    -0.06900
Co2781     Co  0.49831428  0.99295257  0.70739676     0.74200
N2782       N  0.55925830  0.95615753  0.72124860    -0.26100
Co2783     Co  0.56223690  0.99486586  0.74179211     0.74100
C2784       C  0.58387290  0.93234746  0.78896307     0.42600
N2785       N  0.96309410  0.96175221  0.77994597     0.01000
N2786       N  0.56308237  0.96076442  0.76502987     0.01100
N2787       N  0.54079136  0.55275981  0.69210155    -0.46900
H2788       H  0.96503945  0.92640312  0.68473103     0.06800
N2789       N  0.53521034  0.95622104  0.70790621     0.01300
N2790       N  0.56377519  0.53263456  0.76221848     0.01100
C2791       C  0.58564632  0.56750039  0.78236938     0.42700
N2792       N  0.93914716  0.96113124  0.76658375    -0.25500
C2793       C  0.95651965  0.55545228  0.69581765    -0.06400
N2794       N  0.91297741  0.93435112  0.72200225    -0.46600
N2795       N  0.59052984  0.55219479  0.76534311    -0.46900
C2796       C  0.92908518  0.57418348  0.70427015     0.42500
N2797       N  0.53694409  0.52917924  0.70563663     0.01300
N2798       N  0.94065622  0.53397844  0.76431894    -0.25500
N2799       N  0.95945188  0.95745514  0.70978490    -0.26000
N2800       N  0.96368600  0.53439590  0.77819061     0.01000
H2801       H  0.89224356  0.55737769  0.76097917     0.06900
H2802       H  0.54238713  0.55789851  0.80403439     0.06900
N2803       N  0.56074876  0.53048104  0.71904595    -0.26100
N2804       N  0.53919948  0.96108574  0.77840041    -0.25700
N2805       N  0.93875141  0.53154859  0.72206221     0.01300
C2806       C  0.56628230  0.91440571  0.70018193     0.42700
C2807       C  0.91434620  0.94028983  0.77243173    -0.07000
N2808       N  0.54120865  0.53374291  0.77630993    -0.25700
H2809       H  0.53654493  0.94131964  0.80736472     0.06900
N2810       N  0.53862461  0.93211969  0.69507100    -0.46900
H2811       H  0.88950042  0.93869164  0.76575734     0.06900
C2812       C  0.92557746  0.56946599  0.78717632     0.42600
C2813       C  0.95177599  0.93230475  0.69789325    -0.06400
Co2814     Co  0.93817402  0.99614010  0.74410266     0.73800
N2815       N  0.95544223  0.94251742  0.79510348    -0.46600
C2816       C  0.56856081  0.57139732  0.69673366     0.42800
N2817       N  0.91893475  0.55806709  0.72049078    -0.46600
Co2818     Co  0.50192997  0.99771574  0.77847275     0.73900
C2819       C  0.55282202  0.55526288  0.78968298    -0.07000
C2820       C  0.57990921  0.93026037  0.71777702    -0.06500
N2821       N  0.96121729  0.52987458  0.70801700    -0.26000
N2822       N  0.59026527  0.94418952  0.77090741    -0.46800
H2823       H  0.60195144  0.56508257  0.72419074     0.06800
C2824       C  0.91649064  0.55601743  0.76833902    -0.06900
Cl2825     Cl  0.50030331  0.99530632  0.74296786    -0.49900
C2826       C  0.92481652  0.92804191  0.79155448     0.42600
H2827       H  0.96987104  0.55948932  0.68242618     0.06800
N2828       N  0.95514016  0.55468600  0.79243952    -0.46600
N2829       N  0.75455821  0.64017108  0.09261368    -0.36600
N2830       N  0.70145525  0.63202624  0.12092198    -0.57200
N2831       N  0.75214657  0.62191248  0.15104367    -0.36600
N2832       N  0.80529145  0.63016586  0.12205069    -0.57200
C2833       C  0.72711105  0.63619091  0.08109958     0.27000
C2834       C  0.78219180  0.63450556  0.08168362     0.27000
C2835       C  0.72360899  0.60902273  0.15947672     0.27000
C2836       C  0.77959574  0.60877320  0.16027218     0.27000
C2837       C  0.68356838  0.64540384  0.10605280     0.35600
C2838       C  0.68205177  0.63459006  0.13690766     0.35600
C2839       C  0.82494501  0.64227068  0.10748774     0.35600
C2840       C  0.82372479  0.63278796  0.13850687     0.35600
C2841       C  0.73730376  0.62769693  0.06262192    -0.21900
C2842       C  0.77221550  0.62652829  0.06300537    -0.21900
C2843       C  0.73312715  0.58736336  0.17432613    -0.21900
C2844       C  0.76833831  0.58727474  0.17485596    -0.21900
C2845       C  0.65270539  0.65700816  0.11261024    -0.23000
C2846       C  0.65180456  0.65032032  0.13222497    -0.23000
C2847       C  0.85599941  0.65304309  0.11470494    -0.23000
C2848       C  0.85519431  0.64716693  0.13439901    -0.23000
C2849       C  0.69366259  0.64388158  0.08646602    -0.18300
C2850       C  0.81592255  0.64066879  0.08766536    -0.18300
C2851       C  0.81429629  0.61739292  0.15633284    -0.18300
C2852       C  0.68949590  0.61826087  0.15472843    -0.18300
H2853       H  0.72132042  0.62382137  0.05004908     0.14600
H2854       H  0.78844941  0.62166524  0.05077163     0.14600
H2855       H  0.71644368  0.57341718  0.18395668     0.14600
H2856       H  0.78387404  0.57321026  0.18494078     0.14600
H2857       H  0.63261251  0.66816329  0.10406650     0.12900
H2858       H  0.63073039  0.65509912  0.14177730     0.12900
H2859       H  0.87726340  0.66317474  0.10657001     0.12900
H2860       H  0.87590286  0.65160429  0.14442303     0.12900
H2861       H  0.75459877  0.65107136  0.10623272     0.26100
H2862       H  0.75290032  0.64127271  0.14081468     0.26100
N2863       N  0.75429094  0.84226519  0.10262365    -0.36600
N2864       N  0.70101361  0.85998887  0.12979954    -0.57200
N2865       N  0.75247821  0.87845028  0.15800392    -0.36600
N2866       N  0.80571010  0.85787473  0.13125873    -0.57200
C2867       C  0.72673849  0.82880565  0.09380795     0.27000
C2868       C  0.78194447  0.82866322  0.09439124     0.27000
C2869       C  0.72441709  0.88378126  0.16881672     0.27000
C2870       C  0.77994586  0.88175662  0.16971621     0.27000
C2871       C  0.68212026  0.85562758  0.11362767     0.35600
C2872       C  0.68057810  0.87437442  0.14294593     0.35600
C2873       C  0.82582798  0.85405517  0.11565588     0.35600
C2874       C  0.82532974  0.87210371  0.14503160     0.35600
C2875       C  0.73697980  0.80637534  0.07984059    -0.21900
C2876       C  0.77192219  0.80637709  0.08016372    -0.21900
C2877       C  0.73430269  0.89106452  0.18761458    -0.21900
C2878       C  0.76925827  0.88957833  0.18820714    -0.21900
C2879       C  0.64942009  0.86694386  0.11659032    -0.23000
C2880       C  0.64825367  0.87816090  0.13521052    -0.23000
C2881       C  0.85845307  0.86541644  0.11959163    -0.23000
C2882       C  0.85822462  0.87663840  0.13823313    -0.23000
C2883       C  0.69286718  0.83864561  0.09686705    -0.18300
C2884       C  0.81588287  0.83793224  0.09844620    -0.18300
C2885       C  0.81440295  0.88089542  0.16377073    -0.18300
C2886       C  0.69037183  0.88422530  0.16186548    -0.18300
H2887       H  0.72094791  0.79224908  0.07005120     0.14600
H2888       H  0.78810996  0.79209598  0.07077029     0.14600
H2889       H  0.71810102  0.89734158  0.19962602     0.14600
H2890       H  0.78504970  0.89460176  0.20072195     0.14600
H2891       H  0.62828347  0.86650675  0.10654239     0.12900
H2892       H  0.62604009  0.88823060  0.14212017     0.12900
H2893       H  0.88026491  0.86524008  0.11011270     0.12900
H2894       H  0.87986212  0.88714510  0.14584048     0.12900
H2895       H  0.75431345  0.86260314  0.11159317     0.26100
H2896       H  0.75312956  0.87625563  0.14346679     0.26100
C2897       C  0.64114046  0.55734329  0.79959204    -0.01900
C2898       C  0.61410069  0.57900690  0.79478447     0.07800
C2899       C  0.61394758  0.61176738  0.80215625    -0.02000
C2900       C  0.64059895  0.62294027  0.81420753    -0.02000
C2901       C  0.66663247  0.60075402  0.81982414     0.08000
C2902       C  0.66637526  0.56769359  0.81278215    -0.02200
Br2903     Br  0.69926652  0.53577277  0.82223794    -0.00700
Br2904     Br  0.64427080  0.51341931  0.78829415    -0.00800
Br2905     Br  0.64147136  0.66871848  0.82298349    -0.00700
Br2906     Br  0.57755544  0.64163196  0.79522300    -0.00700
C2907       C  0.84700270  0.56431381  0.81873732    -0.01900
C2908       C  0.84358762  0.59801499  0.82409368     0.07800
C2909       C  0.86811706  0.62204067  0.81819573    -0.02000
C2910       C  0.89575020  0.61241102  0.80669383    -0.02000
C2911       C  0.89904894  0.57874062  0.80117240     0.08000
C2912       C  0.87457868  0.55468887  0.80729143    -0.02200
Br2913     Br  0.87810926  0.50848203  0.79982739    -0.00700
Br2914     Br  0.81385481  0.53130563  0.82727658    -0.00800
Br2915     Br  0.92850801  0.64543152  0.79788025    -0.00700
Br2916     Br  0.86334928  0.66823271  0.82559795    -0.00700
C2917       C  0.63555027  0.90128282  0.79963651    -0.01900
C2918       C  0.61152429  0.92642533  0.80328942     0.07800
C2919       C  0.61522628  0.94639967  0.82010104    -0.02000
C2920       C  0.64181082  0.94012265  0.83329623    -0.02000
C2921       C  0.66491226  0.91418878  0.82990788     0.08000
C2922       C  0.66199569  0.89504717  0.81293903    -0.02200
Br2923     Br  0.69389938  0.85974262  0.80812517    -0.00700
Br2924     Br  0.63191734  0.87475854  0.77648410    -0.00800
Br2925     Br  0.64745972  0.96777681  0.85592968    -0.00700
Br2926     Br  0.58625706  0.98425468  0.82493277    -0.00700
C2927       C  0.89802234  0.93480496  0.82470388    -0.01900
C2928       C  0.89954868  0.91826024  0.80664420     0.07800
C2929       C  0.87355939  0.89507951  0.80172856    -0.02000
C2930       C  0.84478900  0.89104554  0.81357315    -0.02000
C2931       C  0.84237384  0.90907375  0.83090126     0.08000
C2932       C  0.86917539  0.93065693  0.83652064    -0.02200
Br2933     Br  0.86561837  0.95558408  0.86028687    -0.00700
Br2934     Br  0.93449029  0.96350659  0.83382994    -0.00800
Br2935     Br  0.80873578  0.86057003  0.80609679    -0.00700
Br2936     Br  0.87846724  0.86682212  0.77938954    -0.00700
C2937       C  0.64451453  0.68878933  0.04680094    -0.01900
C2938       C  0.61896708  0.66483993  0.04250320     0.07800
C2939       C  0.62048664  0.63258525  0.05088617    -0.02000
C2940       C  0.64532454  0.62547740  0.06503587    -0.02000
C2941       C  0.66857037  0.65064432  0.07079858     0.08000
C2942       C  0.66899937  0.68187829  0.06109105    -0.02200
Br2943     Br  0.70204116  0.71581175  0.06809090    -0.00700
Br2944     Br  0.64544269  0.73150543  0.03331598    -0.00800
Br2945     Br  0.64714764  0.58160709  0.07692753    -0.00700
Br2946     Br  0.58717955  0.59900880  0.04397140    -0.00700
C2947       C  0.86685875  0.62197846  0.06867392    -0.01900
C2948       C  0.84218981  0.64646979  0.07241670     0.07800
C2949       C  0.84162376  0.67613897  0.06110889    -0.02000
C2950       C  0.86658998  0.68196625  0.04692599    -0.02000
C2951       C  0.89289035  0.65869019  0.04427974     0.08000
C2952       C  0.89233778  0.62823804  0.05475313    -0.02200
Br2953     Br  0.92820999  0.59646599  0.05115793    -0.00700
Br2954     Br  0.86616142  0.58018734  0.08293737    -0.00800
Br2955     Br  0.86574675  0.72282811  0.03163146    -0.00700
Br2956     Br  0.80793540  0.70992022  0.06585611    -0.00700
C2957       C  0.63999568  0.83783235  0.05048530    -0.01900
C2958       C  0.61200293  0.81764802  0.05632189     0.07800
C2959       C  0.61224993  0.80290664  0.07522082    -0.02000
C2960       C  0.64060593  0.80682687  0.08731730    -0.02000
C2961       C  0.66663845  0.82950718  0.08218893     0.08000
C2962       C  0.66629332  0.84511466  0.06376783    -0.02200
Br2963     Br  0.70164357  0.87692902  0.05683962    -0.00700
Br2964     Br  0.64428142  0.85386481  0.02416957    -0.00800
Br2965     Br  0.64390110  0.78101344  0.11114703    -0.00700
Br2966     Br  0.57325920  0.77944581  0.08616615    -0.00700
C2967       C  0.84691332  0.84841721  0.06726611    -0.01900
C2968       C  0.84273178  0.82931292  0.08430520     0.07800
C2969       C  0.86508087  0.80313298  0.08851470    -0.02000
C2970       C  0.89316096  0.79760149  0.07650801    -0.02000
C2971       C  0.89650256  0.81517948  0.05842434     0.08000
C2972       C  0.87202891  0.83994625  0.05372532    -0.02200
Br2973     Br  0.86958362  0.86099245  0.02853199    -0.00700
Br2974     Br  0.81872969  0.88713499  0.06295193    -0.00800
Br2975     Br  0.92732201  0.76752426  0.08670445    -0.00700
Br2976     Br  0.85693811  0.77488013  0.11102879    -0.00700
C2977       C  0.63954133  0.82044855  0.94752675    -0.01900
C2978       C  0.61273499  0.84222321  0.95200856     0.07800
C2979       C  0.61383066  0.87570261  0.94530833    -0.02000
C2980       C  0.63998860  0.88644206  0.93273417    -0.02000
C2981       C  0.66515423  0.86377460  0.92695489     0.08000
C2982       C  0.66537887  0.83099104  0.93481449    -0.02200
Br2983     Br  0.69985150  0.79965695  0.92726255    -0.00700
Br2984     Br  0.64100689  0.77594303  0.95887847    -0.00800
Br2985     Br  0.64084677  0.93184640  0.92283725    -0.00700
Br2986     Br  0.57848636  0.90623146  0.95236964    -0.00700
C2987       C  0.86372111  0.81235480  0.94515704    -0.01900
C2988       C  0.89090804  0.83391441  0.95050810     0.07800
C2989       C  0.89185302  0.86722050  0.94349464    -0.02000
C2990       C  0.86567814  0.87899147  0.93135321    -0.02000
C2991       C  0.83881047  0.85735858  0.92594880     0.08000
C2992       C  0.83786056  0.82404592  0.93285240    -0.02200
Br2993     Br  0.80228934  0.79377365  0.92429085    -0.00700
Br2994     Br  0.86211899  0.76622254  0.95407550    -0.00800
Br2995     Br  0.86730851  0.92429276  0.92129459    -0.00700
Br2996     Br  0.93081915  0.89553656  0.94862318    -0.00700
C2997       C  0.61105268  0.69325567  0.91875967    -0.01900
C2998       C  0.61114252  0.68137755  0.93827506     0.07800
C2999       C  0.63865252  0.66170975  0.94485020    -0.02000
C3000       C  0.66397330  0.65192681  0.93181117    -0.02000
C3001       C  0.66436912  0.66496317  0.91276621     0.08000
C3002       C  0.63851725  0.68658306  0.90653734    -0.02200
Br3003     Br  0.64123770  0.70781080  0.88124593    -0.00700
Br3004     Br  0.57303132  0.71711681  0.90756373    -0.00800
Br3005     Br  0.69758724  0.61972741  0.93993581    -0.00700
Br3006     Br  0.64433695  0.65047981  0.97190302    -0.00700
C3007       C  0.86737946  0.65665861  0.94775529    -0.01900
C3008       C  0.89600657  0.67390142  0.94010051     0.07800
C3009       C  0.89645118  0.68292322  0.92019185    -0.02000
C3010       C  0.86805259  0.67646569  0.90849935    -0.02000
C3011       C  0.84044977  0.65766886  0.91585802     0.08000
C3012       C  0.84033457  0.64734607  0.93544553    -0.02200
Br3013     Br  0.80336969  0.62005537  0.94537401    -0.00700
Br3014     Br  0.86333097  0.64779616  0.97518064    -0.00800
Br3015     Br  0.86658112  0.69447282  0.88237295    -0.00700
Br3016     Br  0.93637332  0.70236076  0.90797047    -0.00700
C3017       C  0.87893323  0.93913831  0.18625851    -0.01900
C3018       C  0.89722782  0.91740653  0.19864941     0.07800
C3019       C  0.88716321  0.88337084  0.20022921    -0.02000
C3020       C  0.85969465  0.87127165  0.18901070    -0.02000
C3021       C  0.84101455  0.89352061  0.17721528     0.08000
C3022       C  0.85028129  0.92756124  0.17619261    -0.02200
Br3023     Br  0.82380232  0.95827249  0.16061345    -0.00700
Br3024     Br  0.89371146  0.98482379  0.18220664    -0.00800
Br3025     Br  0.84733230  0.82436948  0.18971400    -0.00700
Br3026     Br  0.90884993  0.85382004  0.21861655    -0.00700
C3027       C  0.62111387  0.94057008  0.18059830    -0.01900
C3028       C  0.60716629  0.92131026  0.19593071     0.07800
C3029       C  0.62101239  0.88963740  0.20033899    -0.02000
C3030       C  0.64850686  0.87751117  0.18943423    -0.02000
C3031       C  0.66314699  0.89756472  0.17462009     0.08000
C3032       C  0.64975467  0.92948974  0.17058619    -0.02200
Br3033     Br  0.67087770  0.95826453  0.15130349    -0.00700
Br3034     Br  0.60009063  0.98188190  0.17268065    -0.00800
Br3035     Br  0.66662260  0.83372814  0.19499011    -0.00700
Br3036     Br  0.60366927  0.86356079  0.22181354    -0.00700
C3037       C  0.89675935  0.58059944  0.17729013    -0.01900
C3038       C  0.89658479  0.59205170  0.19644995     0.07800
C3039       C  0.87024105  0.61340561  0.20225898    -0.02000
C3040       C  0.84384283  0.62229306  0.18921144    -0.02000
C3041       C  0.84228664  0.60817994  0.17049569     0.08000
C3042       C  0.86901427  0.58686447  0.16478078    -0.02200
Br3043     Br  0.86689873  0.56391822  0.14034969    -0.00700
Br3044     Br  0.93616084  0.55748129  0.16804429    -0.00800
Br3045     Br  0.81021674  0.65424864  0.19697688    -0.00700
Br3046     Br  0.87072253  0.63080490  0.22810247    -0.00700
C3047       C  0.65964886  0.62211150  0.18734095    -0.01900
C3048       C  0.66034747  0.60950113  0.16827139     0.07800
C3049       C  0.63229195  0.58961266  0.16193564    -0.02000
C3050       C  0.60441483  0.58298639  0.17435773    -0.02000
C3051       C  0.60556804  0.59274274  0.19385575     0.08000
C3052       C  0.63330121  0.61248174  0.20022105    -0.02200
Br3053     Br  0.63510890  0.62637342  0.22674045    -0.00700
Br3054     Br  0.69402960  0.65366673  0.19576429    -0.00800
Br3055     Br  0.56397727  0.56109052  0.16468332    -0.00700
Br3056     Br  0.63246795  0.56919052  0.13671859    -0.00700
C3057       C  0.61705500  0.60987509  0.68506664    -0.01900
C3058       C  0.58183023  0.60127430  0.68521496     0.07800
C3059       C  0.55951898  0.62148397  0.67386342    -0.02000
C3060       C  0.57159270  0.65029319  0.66393650    -0.02000
C3061       C  0.60631371  0.65856225  0.66403723     0.08000
C3062       C  0.62897229  0.63839307  0.67463125    -0.02200
Br3063     Br  0.67676481  0.64973662  0.67425696    -0.00700
Br3064     Br  0.65055557  0.58096938  0.69673859    -0.00800
Br3065     Br  0.54066733  0.67846884  0.64941354    -0.00700
Br3066     Br  0.51245766  0.61008318  0.67016942    -0.00700
C3067       C  0.55821265  0.86265659  0.67970163    -0.01900
C3068       C  0.58036880  0.88640716  0.68848412     0.07800
C3069       C  0.61575298  0.88385124  0.68516741    -0.02000
C3070       C  0.62852784  0.85731903  0.67404080    -0.02000
C3071       C  0.60629521  0.83302206  0.66623432     0.08000
C3072       C  0.57119220  0.83560908  0.66924000    -0.02200
Br3073     Br  0.54073669  0.80255872  0.65809055    -0.00700
Br3074     Br  0.50977051  0.86743952  0.68044453    -0.00800
Br3075     Br  0.67652417  0.85468170  0.66878125    -0.00700
Br3076     Br  0.64679366  0.91876750  0.69335473    -0.00700
C3077       C  0.88038992  0.63750918  0.67577315    -0.01900
C3078       C  0.90507594  0.66322205  0.67431760     0.07800
C3079       C  0.93400733  0.66268192  0.68636202    -0.02000
C3080       C  0.93969610  0.63474362  0.69842569    -0.02000
C3081       C  0.91747500  0.60692091  0.69752752     0.08000
C3082       C  0.88695783  0.60892189  0.68707776    -0.02200
Br3083     Br  0.85539277  0.57159901  0.68731829    -0.00700
Br3084     Br  0.83787011  0.64140135  0.66213634    -0.00800
Br3085     Br  0.97763695  0.63425752  0.71621823    -0.00700
Br3086     Br  0.96639874  0.69927038  0.68564545    -0.00700
C3087       C  0.86515524  0.86080151  0.67620156    -0.01900
C3088       C  0.88697255  0.83309302  0.67462948     0.07800
C3089       C  0.91577709  0.83086850  0.68688719    -0.02000
C3090       C  0.92280354  0.85653203  0.70006324    -0.02000
C3091       C  0.90462956  0.88650368  0.69896776     0.08000
C3092       C  0.87500870  0.88831448  0.68759444    -0.02200
Br3093     Br  0.84954542  0.92924992  0.68655650    -0.00700
Br3094     Br  0.82282489  0.86174394  0.66204238    -0.00800
Br3095     Br  0.45791789  0.85050992  0.71954646    -0.00700
Br3096     Br  0.44810173  0.79498943  0.68394989    -0.00700
C3097       C  0.88920763  0.62799231  0.54753798    -0.01900
C3098       C  0.86671369  0.60312268  0.55488058     0.07800
C3099       C  0.85739416  0.60394203  0.57459144    -0.02000
C3100       C  0.86399339  0.63261516  0.58544840    -0.02000
C3101       C  0.88573508  0.65800922  0.57814682     0.08000
C3102       C  0.89989285  0.65464658  0.55951433    -0.02200
Br3103     Br  0.93293362  0.68703485  0.55025095    -0.00700
Br3104     Br  0.90435911  0.62668693  0.52105255    -0.00800
Br3105     Br  0.83974373  0.63812252  0.60944224    -0.00700
Br3106     Br  0.83827353  0.56502126  0.58774717    -0.00700
C3107       C  0.88057379  0.88201948  0.55612124    -0.01900
C3108       C  0.84647435  0.88934303  0.55161849     0.07800
C3109       C  0.82052123  0.86628916  0.55694112    -0.02000
C3110       C  0.82790755  0.83925273  0.56934080    -0.02000
C3111       C  0.86185918  0.83267769  0.57441592     0.08000
C3112       C  0.88827860  0.85259137  0.56653053    -0.02200
Br3113     Br  0.93496046  0.84032984  0.57095879    -0.00700
Br3114     Br  0.91656117  0.91357420  0.55001466    -0.00800
Br3115     Br  0.79126610  0.81239317  0.58008849    -0.00700
Br3116     Br  0.77520571  0.87008450  0.54644558    -0.00700
C3117       C  0.66519920  0.66552273  0.55228792    -0.01900
C3118       C  0.67524215  0.66549136  0.57195678     0.07800
C3119       C  0.69522217  0.63914266  0.57917775    -0.02000
C3120       C  0.70221545  0.61152750  0.56753997    -0.02000
C3121       C  0.69437256  0.61234391  0.54740431     0.08000
C3122       C  0.67651768  0.64015329  0.53979568    -0.02200
Br3123     Br  0.66952353  0.64546787  0.51229401    -0.00700
Br3124     Br  0.63532578  0.69984787  0.54248803    -0.00800
Br3125     Br  0.72016767  0.57206612  0.58046429    -0.00700
Br3126     Br  0.71429369  0.64127339  0.60503904    -0.00700
C3127       C  0.69039736  0.86890763  0.58192529    -0.01900
C3128       C  0.67281278  0.84129896  0.57399162     0.07800
C3129       C  0.66356248  0.84233432  0.55418682    -0.02000
C3130       C  0.67403485  0.86959587  0.54228180    -0.02000
C3131       C  0.68917458  0.89842176  0.55066264     0.08000
C3132       C  0.69531657  0.89830619  0.57091197    -0.02200
Br3133     Br  0.70780087  0.93881408  0.58453361    -0.00700
Br3134     Br  0.70941420  0.86621145  0.60775134    -0.00800
Br3135     Br  0.66987096  0.86532053  0.51459292    -0.00700
Br3136     Br  0.63546226  0.80717868  0.54338262    -0.00700
C3137       C  0.58590876  0.64127309  0.33760112    -0.01900
C3138       C  0.61053256  0.66417322  0.33046035     0.07800
C3139       C  0.62739378  0.65721362  0.31299987    -0.02000
C3140       C  0.61782472  0.62886148  0.30209750    -0.02000
C3141       C  0.59214810  0.60689536  0.30887882     0.08000
C3142       C  0.57782041  0.61221699  0.32715136    -0.02200
Br3143     Br  0.54883311  0.57819639  0.33830467    -0.00700
Br3144     Br  0.56256641  0.65005356  0.36152415    -0.00800
Br3145     Br  0.63996534  0.61982853  0.27803495    -0.00700
Br3146     Br  0.66385079  0.68621131  0.30426333    -0.00700
C3147       C  0.59072595  0.86765451  0.33662194    -0.01900
C3148       C  0.61205398  0.84255842  0.32922463     0.07800
C3149       C  0.62541357  0.84655711  0.31037961    -0.02000
C3150       C  0.61643496  0.87465558  0.29887996    -0.02000
C3151       C  0.59551786  0.89982782  0.30643360     0.08000
C3152       C  0.58354471  0.89655310  0.32550307    -0.02200
Br3153     Br  0.55733988  0.93215854  0.33634041    -0.00700
Br3154     Br  0.56983992  0.86181505  0.36169854    -0.00800
Br3155     Br  0.63235799  0.87853142  0.27263856    -0.00700
Br3156     Br  0.65636118  0.81385722  0.30038901    -0.00700
C3157       C  0.66369626  0.61150136  0.43863892    -0.01900
C3158       C  0.69877099  0.60993552  0.44300982     0.07800
C3159       C  0.72003194  0.63744572  0.43809972    -0.02000
C3160       C  0.70709445  0.66528254  0.42807067    -0.02000
C3161       C  0.67251784  0.66619123  0.42302728     0.08000
C3162       C  0.65067540  0.63955660  0.42859879    -0.02200
Br3163     Br  0.60324836  0.64095462  0.42149174    -0.00700
Br3164     Br  0.63367402  0.57439904  0.44494028    -0.00800
Br3165     Br  0.73745104  0.70120666  0.41994339    -0.00700
Br3166     Br  0.76703263  0.63797946  0.44524930    -0.00700
C3167       C  0.70892719  0.84127923  0.42820662    -0.01900
C3168       C  0.67503478  0.83988188  0.42183191     0.07800
C3169       C  0.65211388  0.86479635  0.42753685    -0.02000
C3170       C  0.66344586  0.89188809  0.43894217    -0.02000
C3171       C  0.69775851  0.89387489  0.44487830     0.08000
C3172       C  0.71995375  0.86765275  0.44004218    -0.02200
Br3173     Br  0.76541050  0.86664548  0.45009970    -0.00700
Br3174     Br  0.74086904  0.80806428  0.41972345    -0.00800
Br3175     Br  0.63234886  0.92712214  0.44518195    -0.00700
Br3176     Br  0.60542152  0.86215055  0.41908259    -0.00700
C3177       C  0.88114925  0.65484327  0.31544258    -0.01900
C3178       C  0.90052631  0.66173989  0.33222007     0.07800
C3179       C  0.92614469  0.63902678  0.33792224    -0.02000
C3180       C  0.93197982  0.61005608  0.32708223    -0.02000
C3181       C  0.91543671  0.60529884  0.30932983     0.08000
C3182       C  0.88931427  0.62722862  0.30373595    -0.02200
Br3183     Br  0.86462146  0.61899973  0.28018594    -0.00700
Br3184     Br  0.84313850  0.68269779  0.30871079    -0.00800
Br3185     Br  0.96082093  0.57527822  0.33698930    -0.00700
Br3186     Br  0.95503467  0.64830769  0.35984724    -0.00700
C3187       C  0.92740786  0.86233553  0.33737197    -0.01900
C3188       C  0.89993884  0.84168744  0.33154765     0.07800
C3189       C  0.88099814  0.85085973  0.31494718    -0.02000
C3190       C  0.89065560  0.87942125  0.30378742    -0.02000
C3191       C  0.91822845  0.89984891  0.30971167     0.08000
C3192       C  0.93534902  0.89191790  0.32703018    -0.02200
Br3193     Br  0.96945523  0.92234893  0.33678777    -0.00700
Br3194     Br  0.95606318  0.84888222  0.35872871    -0.00800
Br3195     Br  0.86714082  0.88984368  0.28002673    -0.00700
Br3196     Br  0.84219798  0.82410964  0.30745691    -0.00700
C3197       C  0.86138228  0.66466127  0.44459038    -0.01900
C3198       C  0.88614980  0.66508228  0.42982955     0.07800
C3199       C  0.90903655  0.63825898  0.42850768    -0.02000
C3200       C  0.90293120  0.60859454  0.43909845    -0.02000
C3201       C  0.87569591  0.60702711  0.45212229     0.08000
C3202       C  0.85770062  0.63609095  0.45648489    -0.02200
Br3203     Br  0.82954491  0.63654988  0.47929034    -0.00700
Br3204     Br  0.83088679  0.70163156  0.44777699    -0.00800
Br3205     Br  0.93128220  0.57006859  0.43565535    -0.00700
Br3206     Br  0.94844627  0.64229121  0.41220021    -0.00700
C3207       C  0.90072470  0.86775994  0.42666925    -0.01900
C3208       C  0.88074463  0.83825801  0.42860673     0.07800
C3209       C  0.85808782  0.83499557  0.44440644    -0.02000
C3210       C  0.85477106  0.86155817  0.45740841    -0.02000
C3211       C  0.86950608  0.89279552  0.45293121     0.08000
C3212       C  0.89379139  0.89563357  0.43818679    -0.02200
Br3213     Br  0.91735655  0.93768687  0.43390564    -0.00700
Br3214     Br  0.93746809  0.87010366  0.40836647    -0.00800
Br3215     Br  0.83138657  0.85533304  0.48171906    -0.00700
Br3216     Br  0.82895071  0.79613316  0.44747059    -0.00700
loop_ 
_geom_bond_atom_site_label_1 
_geom_bond_atom_site_label_2 
_geom_bond_distance 
_geom_bond_site_symmetry_2 
_ccdc_geom_bond_type 
N1            C6   1.354       .  A
N1            C5   1.351       .  A
N1           H33   1.041       .  S
N2            C9   1.354       .  A
N2           C10   1.354       .  A
N3            C8   1.353       .  A
N3            C7   1.351       .  A
N3           H34   1.041       .  S
N4           C11   1.344       .  A
N4           C12   1.344       .  A
C5           C13   1.386       .  A
C5           C21   1.414       .  A
C6           C22   1.419       .  A
C6           C14   1.388       .  A
C7           C15   1.387       .  A
C7           C24   1.414       .  A
C8           C23   1.417       .  A
C8           C16   1.388       .  A
C9           C21   1.421       .  A
C9           C17   1.386       .  A
C10          C24   1.421       .  A
C10          C18   1.386       .  A
C11          C19   1.387       .  A
C11          C22   1.406       .  A
C12          C20   1.386       .  A
C12          C23   1.403       .  A
C13          C14   1.380       .  A
C13          H25   1.082       .  S
C14          H26   1.082       .  S
C15          C16   1.379       .  A
C15          H27   1.082       .  S
C16          H28   1.082       .  S
C17          C18   1.384       .  A
C17          H29   1.082       .  S
C18          H30   1.082       .  S
C19          C20   1.377       .  A
C19          H31   1.082       .  S
C20          H32   1.082       .  S
C21         C776   1.501       .  S
C22         C796   1.491       .  S
C23         C786   1.486       .  S
C24         C766   1.502       .  S
N35          C40   1.353       .  A
N35          C39   1.353       .  A
N35          H67   1.041       .  S
N36          C43   1.353       .  A
N36          C44   1.352       .  A
N37          C42   1.352       .  A
N37          C41   1.351       .  A
N37          H68   1.040       .  S
N38          C45   1.348       .  A
N38          C46   1.349       .  A
C39          C47   1.387       .  A
C39          C55   1.415       .  A
C40          C56   1.415       .  A
C40          C48   1.387       .  A
C41          C49   1.387       .  A
C41          C58   1.411       .  A
C42          C57   1.413       .  A
C42          C50   1.388       .  A
C43          C55   1.419       .  A
C43          C51   1.386       .  A
C44          C58   1.416       .  A
C44          C52   1.385       .  A
C45          C53   1.387       .  A
C45          C56   1.412       .  A
C46          C54   1.386       .  A
C46          C57   1.411       .  A
C47          C48   1.376       .  A
C47          H59   1.082       .  S
C48          H60   1.082       .  S
C49          C50   1.373       .  A
C49          H61   1.082       .  S
C50          H62   1.082       .  S
C51          C52   1.382       .  A
C51          H63   1.082       .  S
C52          H64   1.082       .  S
C53          C54   1.378       .  A
C53          H65   1.082       .  S
C54          H66   1.082       .  S
C55         C736   1.502       .  S
C56         C756   1.488       .  S
C57         C749   1.488       .  S
C58         C726   1.492       .  S
C69          N87   1.357       .  A
C69         C106   1.455       .  S
C69         C759   1.488       .  S
N70          N87   1.330       .  A
N70          N92   1.322       .  A
N70        Co911   2.107       .  S
C71          N96   1.338       .  A
C71         H116   1.081       .  S
C71         C109   1.451       .  S
H72         C113   1.081       .  S
C73          N97   1.333       .  A
C73         H102   1.081       .  S
C73          C77   1.452       .  S
Co74        N114   2.096       .  S
Co74         N90   2.095       .  S
Co74        N896   2.077   1_545  S
Co74        N886   2.097   1_545  S
Co74       Cl118   2.428       .  S
N75         C113   1.340       .  A
N75          N82   1.321       .  A
N75        Co880   2.066       .  S
Co76         N96   2.067       .  S
Co76         N83   2.087       .  S
Co76        N879   2.066   1_545  S
Co76        N883   2.081   1_545  S
Co76       Cl118   2.478       .  S
C77         N115   1.353       .  A
C77         C696   1.476       .  S
N78          N85   1.317       .  A
N78         N108   1.317       .  A
N78        Co915   2.071       .  S
N79          N97   1.316       .  A
N79         N115   1.326       .  A
N79        Co880   2.081       .  S
N80         C109   1.351       .  A
N80          N90   1.323       .  A
H81         C106   1.082       .  S
N82         N103   1.323       .  A
N82        Co878   2.096       .  S
N83         N101   1.315       .  A
N83          N88   1.329       .  A
C84          N88   1.355       .  A
C84         C112   1.452       .  S
C84         C686   1.483       .  S
N85         C100   1.349       .  A
N85        Co911   2.096       .  S
C86         N114   1.339       .  A
C86         H120   1.081       .  S
C86          C89   1.465       .  S
C89         N110   1.350       .  A
C89         C746   1.488       .  S
N90          N96   1.321       .  A
N91         C117   1.352       .  A
N91          N93   1.315       .  A
N91        Co107   2.104       .  S
N92         C106   1.333       .  A
N92        Co878   2.077       .  S
N93         N121   1.313       .  A
N93        Co111   2.054       .  S
H94         C117   1.081       .  S
H95         C112   1.080       .  S
N97        Co915   2.065       .  S
N98         N110   1.326       .  A
N98         N114   1.322       .  A
N98        Co107   2.085       .  S
C99         N103   1.350       .  A
C99         C113   1.450       .  S
C99         C799   1.463       .  S
C100        H104   1.081       .  S
C100        C119   1.476       .  S
N101        C112   1.329       .  A
N101       Co111   2.059       .  S
C105        N121   1.339       .  A
C105        C117   1.480       .  S
C105        C709   1.493       .  S
Co107       N874   2.107   1_545  S
Co107       N889   2.096   1_545  S
Co107      Cl118   2.487       .  S
N108        C119   1.344       .  A
C109        C789   1.462       .  S
Co111       N882   2.071   1_545  S
Co111       N901   2.064   1_545  S
Co111      Cl118   2.403       .  S
C119        C719   1.495       .  S
N122        C127   1.355       .  A
N122        C126   1.352       .  A
N122        H154   1.041       .  S
N123        C130   1.348       .  A
N123        C131   1.350       .  A
N124        C129   1.351       .  A
N124        C128   1.349       .  A
N124        H155   1.040       .  S
N125        C132   1.343       .  A
N125        C133   1.344       .  A
C126        C134   1.388       .  A
C126        C142   1.416       .  A
C127        C143   1.418       .  A
C127        C135   1.386       .  A
C128        C136   1.387       .  A
C128        C145   1.412       .  A
C129        C144   1.414       .  A
C129        C137   1.387       .  A
C130        C142   1.409       .  A
C130        C138   1.386       .  A
C131        C145   1.412       .  A
C131        C139   1.387       .  A
C132        C140   1.387       .  A
C132        C143   1.403       .  A
C133        C141   1.386       .  A
C133        C144   1.403       .  A
C134        C135   1.374       .  A
C134        H146   1.081       .  S
C135        H147   1.082       .  S
C136        C137   1.380       .  A
C136        H148   1.082       .  S
C137        H149   1.082       .  S
C138        C139   1.375       .  A
C138        H150   1.082       .  S
C139        H151   1.082       .  S
C140        C141   1.376       .  A
C140        H152   1.082       .  S
C141        H153   1.082       .  S
C142        C699   1.484       .  S
C143        C676   1.489       .  S
C144        C666   1.478       .  S
C145        C689   1.490       .  S
N156        C161   1.354       .  A
N156        C160   1.355       .  A
N156        H188   1.041       .  S
N157        C164   1.352       .  A
N157        C165   1.351       .  A
N158        C163   1.355       .  A
N158        C162   1.352       .  A
N158        H189   1.041       .  S
N159        C166   1.348       .  A
N159        C167   1.350       .  A
C160        C168   1.388       .  A
C160        C176   1.419       .  A
C161        C177   1.418       .  A
C161        C169   1.387       .  A
C162        C170   1.388       .  A
C162        C179   1.417       .  A
C163        C178   1.417       .  A
C163        C171   1.386       .  A
C164        C176   1.416       .  A
C164        C172   1.386       .  A
C165        C179   1.416       .  A
C165        C173   1.387       .  A
C166        C174   1.387       .  A
C166        C177   1.411       .  A
C167        C175   1.386       .  A
C167        C178   1.411       .  A
C168        C169   1.376       .  A
C168        H180   1.082       .  S
C169        H181   1.082       .  S
C170        C171   1.376       .  A
C170        H182   1.082       .  S
C171        H183   1.082       .  S
C172        C173   1.379       .  A
C172        H184   1.082       .  S
C173        H185   1.082       .  S
C174        C175   1.378       .  A
C174        H186   1.082       .  S
C175        H187   1.082       .  S
C176        C649   1.498       .  S
C177        C706   1.495       .  S
C178        C716   1.501       .  S
C179        C659   1.492       .  S
C190        N208   1.345       .  A
C190        C227   1.467       .  S
C190        C769   1.482       .  S
N191        N208   1.322       .  A
N191        N213   1.323       .  A
N191      Co1836   2.091       .  S
C192        N217   1.350       .  A
C192        H237   1.081       .  S
C192        C230   1.473       .  S
H193        C234   1.082       .  S
C194        N218   1.354       .  A
C194        H223   1.081       .  S
C194        C198   1.475       .  S
Co195       N203   2.117       .  S
Co195       N211   2.063       .  S
Co195      N1017   2.100       .  S
Co195      N1039   2.094       .  S
Co195     Cl1847   2.461       .  S
N196        C234   1.335       .  A
N196        N203   1.323       .  A
N196      Co1805   2.080       .  S
Co197       N200   2.070       .  S
Co197       N204   2.113       .  S
Co197      N1804   2.079   1_455  S
Co197      N1825   2.104   1_455  S
Co197      Cl239   2.456       .  S
C198        N236   1.340       .  A
C198        C739   1.484       .  S
N199        N206   1.322       .  A
N199        N229   1.332       .  A
N199      Co1036   2.103       .  S
N200        N218   1.323       .  A
N200        N236   1.321       .  A
N201        C230   1.341       .  A
N201        N211   1.316       .  A
H202        C227   1.081       .  S
N203        N224   1.334       .  A
N204        N222   1.321       .  A
N204        N209   1.333       .  A
C205        N209   1.361       .  A
C205        C233   1.446       .  S
C205        C616   1.485       .  S
N206        C221   1.335       .  A
N206       Co228   2.084       .  S
C207        N235   1.339       .  A
C207        H241   1.081       .  S
C207        C210   1.452       .  S
C210        N231   1.362       .  A
C210        C626   1.499       .  S
N211        N217   1.322       .  A
N212        C238   1.355       .  A
N212        N214   1.323       .  A
N212       Co228   2.128       .  S
N213        C227   1.350       .  A
N213       Co999   2.099       .  S
N214        N242   1.325       .  A
N214      Co1036   2.091       .  S
H215        C238   1.081       .  S
H216        C233   1.082       .  S
N217      Co1805   2.104       .  S
N218       Co232   2.122       .  S
N219        N231   1.337       .  A
N219        N235   1.324       .  A
N219      Co1836   2.127       .  S
C220        N224   1.360       .  A
C220        C234   1.448       .  S
C220        C779   1.486       .  S
C221        H225   1.082       .  S
C221        C240   1.449       .  S
N222        C233   1.330       .  A
N222       Co232   2.064       .  S
C226        N242   1.345       .  A
C226        C238   1.477       .  S
C226        C639   1.497       .  S
Co228      N1799   2.089   1_455  S
Co228      N1827   2.122   1_455  S
Co228     Cl1043   2.458       .  S
N229        C240   1.357       .  A
C230        C606   1.482       .  S
Co232      N1003   2.103       .  S
Co232      N1018   2.089       .  S
Co232      Cl239   2.462       .  S
N235       Co999   2.095       .  S
Cl239     Co1803   2.460   1_455  S
Cl239     Co1032   2.458       .  S
C240        C729   1.481       .  S
C243        N261   1.360       .  A
C243        C280   1.441       .  S
C243        C576   1.477       .  S
N244        N261   1.332       .  A
N244        N266   1.320       .  A
N244      Co1889   2.121   1_556  S
C245        N270   1.346       .  A
C245        H290   1.081       .  S
C245        C283   1.475       .  S
H246        C287   1.081       .  S
C247        N271   1.327       .  A
C247        H276   1.080       .  S
C247        C251   1.437       .  S
Co248       N288   2.061       .  S
Co248       N264   2.061       .  S
Co248      N1874   2.047   1_455  S
Co248      N1864   2.071   1_455  S
Co248      Cl292   2.398       .  S
N249        C287   1.344       .  A
N249        N256   1.317       .  A
N249      Co1858   2.080       .  S
Co250       N270   2.098       .  S
Co250       N257   2.104   1_556  S
Co250      N1857   2.080   1_455  S
Co250      N1861   2.122   1_456  S
Co250      Cl292   2.495       .  S
C251        N289   1.361       .  A
C251        C539   1.477       .  S
N252        N259   1.315       .  A
N252        N282   1.316       .  A
N252      Co1893   2.068       .  S
N253        N271   1.318       .  A
N253        N289   1.334       .  A
N253      Co1858   2.124   1_554  S
N254        C283   1.341       .  A
N254        N264   1.316       .  A
H255        C280   1.081       .  S
N256        N277   1.316       .  A
N256      Co1856   2.070       .  S
N257        N275   1.318       .  A
N257        N262   1.332       .  A
C258        N262   1.357       .  A
C258        C286   1.441       .  S
C258        C526   1.473       .  S
N259        C274   1.348       .  A
N259      Co1889   2.097       .  S
C260        N288   1.332       .  A
C260        H294   1.081       .  S
C260        C263   1.447       .  S
C263        N284   1.357       .  A
C263        C566   1.478       .  S
N264        N270   1.317       .  A
N265        C291   1.351       .  A
N265        N267   1.316       .  A
N265       Co281   2.102       .  S
N266        C280   1.330       .  A
N266      Co1856   2.048       .  S
N267        N295   1.312       .  A
N267       Co285   2.053       .  S
H268        C291   1.080       .  S
H269        C286   1.081       .  S
N271      Co1893   2.042       .  S
N272        N284   1.331       .  A
N272        N288   1.319       .  A
N272       Co281   2.106   1_556  S
C273        N277   1.343       .  A
C273        C287   1.469       .  S
C273        C596   1.481       .  S
C274        H278   1.079       .  S
C274        C293   1.482       .  S
N275        C286   1.329       .  A
N275       Co285   2.053       .  S
C279        N295   1.336       .  A
C279        C291   1.481       .  S
C279        C546   1.492       .  S
Co281      N1852   2.120   1_454  S
Co281      N1867   2.098   1_455  S
Co281      Cl292   2.499   1_554  S
N282        C293   1.342       .  A
C283        C586   1.490       .  S
Co285      N1860   2.068   1_455  S
Co285      N1879   2.042   1_455  S
Co285      Cl292   2.393   1_554  S
C293        C559   1.504       .  S
N296        C301   1.354       .  A
N296        C300   1.353       .  A
N296        H328   1.041       .  S
N297        C304   1.348       .  A
N297        C305   1.350       .  A
N298        C303   1.351       .  A
N298        C302   1.350       .  A
N298        H329   1.041       .  S
N299        C306   1.347       .  A
N299        C307   1.348       .  A
C300        C308   1.387       .  A
C300        C316   1.417       .  A
C301        C317   1.418       .  A
C301        C309   1.387       .  A
C302        C310   1.387       .  A
C302        C319   1.410       .  A
C303        C318   1.411       .  A
C303        C311   1.387       .  A
C304        C316   1.412       .  A
C304        C312   1.387       .  A
C305        C319   1.411       .  A
C305        C313   1.386       .  A
C306        C314   1.387       .  A
C306        C317   1.410       .  A
C307        C315   1.385       .  A
C307        C318   1.408       .  A
C308        C309   1.379       .  A
C308        H320   1.082       .  S
C309        H321   1.082       .  S
C310        C311   1.376       .  A
C310        H322   1.082       .  S
C311        H323   1.082       .  S
C312        C313   1.379       .  A
C312        H324   1.082       .  S
C313        H325   1.082       .  S
C314        C315   1.376       .  A
C314        H326   1.082       .  S
C315        H327   1.082       .  S
C316        C509   1.490       .  S
C317        C569   1.491       .  S
C318        C579   1.486       .  S
C319        C519   1.489       .  S
N330        C335   1.349       .  A
N330        C334   1.351       .  A
N330        H362   1.041       .  S
N331        C338   1.346       .  A
N331        C339   1.345       .  A
N332        C337   1.352       .  A
N332        C336   1.352       .  A
N332        H363   1.041       .  S
N333        C340   1.350       .  A
N333        C341   1.349       .  A
C334        C342   1.387       .  A
C334        C350   1.412       .  A
C335        C351   1.410       .  A
C335        C343   1.387       .  A
C336        C344   1.386       .  A
C336        C353   1.414       .  A
C337        C352   1.415       .  A
C337        C345   1.387       .  A
C338        C350   1.407       .  A
C338        C346   1.386       .  A
C339        C353   1.406       .  A
C339        C347   1.387       .  A
C340        C348   1.386       .  A
C340        C351   1.413       .  A
C341        C349   1.387       .  A
C341        C352   1.414       .  A
C342        C343   1.377       .  A
C342        H354   1.082       .  S
C343        H355   1.082       .  S
C344        C345   1.377       .  A
C344        H356   1.082       .  S
C345        H357   1.082       .  S
C346        C347   1.378       .  A
C346        H358   1.082       .  S
C347        H359   1.082       .  S
C348        C349   1.379       .  A
C348        H360   1.082       .  S
C349        H361   1.082       .  S
C350        C599   1.486       .  S
C351        C496   1.486       .  S
C352        C489   1.493       .  S
C353        C589   1.487       .  S
C364        N382   1.348       .  A
C364        C401   1.453       .  S
C364        C679   1.467       .  S
N365        N382   1.327       .  A
N365        N387   1.320       .  A
N365       Co402   2.079       .  S
C366        N391   1.346       .  A
C366        H411   1.080       .  S
C366        C404   1.475       .  S
H367        C408   1.081       .  S
C368        N392   1.338       .  A
C368        H397   1.082       .  S
C368        C372   1.461       .  S
Co369       N377   2.075   1_655  S
Co369      N1995   2.078       .  S
Co369      N2821   2.066       .  S
Co369      N1189   2.090   1_655  S
Co369      Cl413   2.461   1_655  S
N370        C408   1.346       .  A
N370        N377   1.319       .  A
N370       Co371   2.110       .  S
Co371       N374   2.093       .  S
Co371      N1195   2.107       .  S
Co371      N1182   2.077       .  S
Co371      Cl413   2.442       .  S
C372        N410   1.353       .  A
C372        C506   1.487       .  S
N373        N380   1.318       .  A
N373        N403   1.325       .  A
N373      Co2014   2.090       .  S
N374        N392   1.321       .  A
N374        N410   1.325       .  A
N375        C404   1.354       .  A
N375        N385   1.327       .  A
H376        C401   1.080       .  S
N377        N398   1.323       .  A
N378        N396   1.322       .  A
N378        N383   1.323       .  A
N378      Co1175   2.077   1_545  S
C379        N383   1.347       .  A
C379        C407   1.466       .  S
C379        C486   1.482       .  S
N380        C395   1.336       .  A
N380       Co402   2.079       .  S
C381        N409   1.331       .  A
C381        H415   1.075       .  S
C381        C384   1.449       .  S
C384        N405   1.346       .  A
C384        C669   1.460       .  S
N385        N391   1.317       .  A
N385      Co1173   2.090   1_445  S
N386        C412   1.335       .  A
N386        N388   1.317       .  A
N386      Co1206   2.067   1_545  S
N387        C401   1.335       .  A
N387      Co1977   2.078       .  S
N388        N416   1.328       .  A
N388      Co2818   2.102   1_545  S
H389        C412   1.082       .  S
H390        C407   1.082       .  S
N391      Co1175   2.107   1_545  S
N392       Co406   2.082       .  S
N393        N405   1.325       .  A
N393        N409   1.318       .  A
N393      Co1206   2.068   1_545  S
C394        N398   1.349       .  A
C394        C408   1.473       .  S
C394        C656   1.498       .  S
C395        H399   1.082       .  S
C395        C414   1.464       .  S
N396        C407   1.344       .  A
N396      Co1210   2.104   1_545  S
C400        N416   1.358       .  A
C400        C412   1.455       .  S
C400        C499   1.480       .  S
Co402      N1190   2.067       .  S
Co402      N1197   2.068       .  S
Co402     Cl2021   2.437       .  S
N403        C414   1.354       .  A
C404        C646   1.514       .  S
Co406      N1981   2.090   1_455  S
Co406      N2800   2.101   1_455  S
Co406      N1200   2.104       .  S
Co406      Cl413   2.457       .  S
N409      Co2781   2.066   1_545  S
Cl413     Co2010   2.438   1_455  S
C414        C516   1.490       .  S
N417        C422   1.349       .  A
N417        C421   1.349       .  A
N417        H449   1.041       .  S
N418        C425   1.352       .  A
N418        C426   1.351       .  A
N419        C424   1.361       .  A
N419        C423   1.362       .  A
N419        H450   1.041       .  S
N420        C427   1.355       .  A
N420        C428   1.352       .  A
C421        C429   1.387       .  A
C421        C437   1.408       .  A
C422        C438   1.410       .  A
C422        C430   1.387       .  A
C423        C431   1.387       .  A
C423        C440   1.435       .  A
C424        C439   1.434       .  A
C424        C432   1.387       .  A
C425        C437   1.414       .  A
C425        C433   1.385       .  A
C426        C440   1.418       .  A
C426        C434   1.388       .  A
C427        C435   1.384       .  A
C427        C438   1.417       .  A
C428        C436   1.389       .  A
C428        C439   1.421       .  A
C429        C430   1.376       .  A
C429        H441   1.082       .  S
C430        H442   1.082       .  S
C431        C432   1.388       .  A
C431        H443   1.082       .  S
C432        H444   1.082       .  S
C433        C434   1.378       .  A
C433        H445   1.082       .  S
C434        H446   1.082       .  S
C435        C436   1.379       .  A
C435        H447   1.082       .  S
C436        H448   1.082       .  S
C437        C529   1.487       .  S
C438        C536   1.495       .  S
C439        C629   1.520       .  S
C440        C636   1.520       .  S
N451        C456   1.351       .  A
N451        C455   1.351       .  A
N451        H483   1.040       .  S
N452        C459   1.352       .  A
N452        C460   1.352       .  A
N453        C458   1.353       .  A
N453        C457   1.354       .  A
N453        H484   1.035       .  S
N454        C461   1.351       .  A
N454        C462   1.350       .  A
C455        C463   1.387       .  A
C455        C471   1.412       .  A
C456        C472   1.411       .  A
C456        C464   1.386       .  A
C457        C465   1.388       .  A
C457        C474   1.421       .  A
C458        C473   1.419       .  A
C458        C466   1.387       .  A
C459        C471   1.416       .  A
C459        C467   1.386       .  A
C460        C474   1.419       .  A
C460        C468   1.388       .  A
C461        C469   1.385       .  A
C461        C472   1.410       .  A
C462        C470   1.389       .  A
C462        C473   1.415       .  A
C463        C464   1.376       .  A
C463        H475   1.082       .  S
C464        H476   1.082       .  S
C465        C466   1.379       .  A
C465        H477   1.082       .  S
C466        H478   1.082       .  S
C467        C468   1.369       .  A
C467        H479   1.082       .  S
C468        H480   1.082       .  S
C469        C470   1.369       .  A
C469        H481   1.082       .  S
C470        H482   1.082       .  S
C471        C549   1.490       .  S
C472        C556   1.488       .  S
C473        C609   1.486       .  S
C474        C619   1.494       .  S
C485        C486   1.416       .  A
C485        C490   1.408       .  A
C485       Br492   1.931       .  S
C486        C487   1.408       .  A
C487        C488   1.409       .  A
C487       Br494   1.930       .  S
C488        C489   1.413       .  A
C488       Br493   1.930       .  S
C489        C490   1.410       .  A
C490       Br491   1.934       .  S
C495        C496   1.406       .  A
C495        C500   1.406       .  A
C495       Br502   1.933       .  S
C496        C497   1.411       .  A
C497        C498   1.409       .  A
C497       Br504   1.929       .  S
C498        C499   1.408       .  A
C498       Br503   1.929       .  S
C499        C500   1.415       .  A
C500       Br501   1.925       .  S
C505        C506   1.412       .  A
C505        C510   1.409       .  A
C505       Br512   1.932       .  S
C506        C507   1.422       .  A
C507        C508   1.408       .  A
C507       Br514   1.936       .  S
C508        C509   1.407       .  A
C508       Br513   1.934       .  S
C509        C510   1.410       .  A
C510       Br511   1.930       .  S
C515        C516   1.420       .  A
C515        C520   1.409       .  A
C515       Br522   1.934       .  S
C516        C517   1.414       .  A
C517        C518   1.407       .  A
C517       Br524   1.933       .  S
C518        C519   1.408       .  A
C518       Br523   1.931       .  S
C519        C520   1.410       .  A
C520       Br521   1.935       .  S
C525        C526   1.412       .  A
C525        C530   1.404       .  A
C525       Br532   1.933       .  S
C526        C527   1.407       .  A
C527        C528   1.409       .  A
C527       Br534   1.927       .  S
C528        C529   1.410       .  A
C528       Br533   1.927       .  S
C529        C530   1.408       .  A
C530       Br531   1.931       .  S
C535        C536   1.412       .  A
C535        C540   1.411       .  A
C535       Br542   1.927       .  S
C536        C537   1.412       .  A
C537        C538   1.407       .  A
C537       Br544   1.933       .  S
C538        C539   1.413       .  A
C538       Br543   1.934       .  S
C539        C540   1.407       .  A
C540       Br541   1.927       .  S
C545        C546   1.416       .  A
C545        C550   1.411       .  A
C545       Br552   1.929       .  S
C546        C547   1.427       .  A
C547        C548   1.401       .  A
C547       Br554   1.941       .  S
C548        C549   1.403       .  A
C548       Br553   1.938       .  S
C549        C550   1.410       .  A
C550       Br551   1.931       .  S
C555        C556   1.405       .  A
C555        C560   1.410       .  A
C555       Br562   1.932       .  S
C556        C557   1.401       .  A
C557        C558   1.406       .  A
C557       Br564   1.937       .  S
C558        C559   1.432       .  A
C558       Br563   1.938       .  S
C559        C560   1.422       .  A
C560       Br561   1.927       .  S
C565        C566   1.412       .  A
C565        C570   1.405       .  A
C565       Br572   1.934       .  S
C566        C567   1.409       .  A
C567        C568   1.411       .  A
C567       Br574   1.928       .  S
C568        C569   1.411       .  A
C568       Br573   1.929       .  S
C569        C570   1.411       .  A
C570       Br571   1.933       .  S
C575        C576   1.416       .  A
C575        C580   1.405       .  A
C575       Br582   1.935       .  S
C576        C577   1.410       .  A
C577        C578   1.409       .  A
C577       Br584   1.929       .  S
C578        C579   1.410       .  A
C578       Br583   1.930       .  S
C579        C580   1.407       .  A
C580       Br581   1.934       .  S
C585        C586   1.425       .  A
C585        C590   1.404       .  A
C585       Br592   1.938       .  S
C586        C587   1.416       .  A
C587        C588   1.408       .  A
C587       Br594   1.931       .  S
C588        C589   1.410       .  A
C588       Br593   1.932       .  S
C589        C590   1.405       .  A
C590       Br591   1.937       .  S
C595        C596   1.415       .  A
C595        C600   1.409       .  A
C595       Br602   1.931       .  S
C596        C597   1.418       .  A
C597        C598   1.401       .  A
C597       Br604   1.938       .  S
C598        C599   1.407       .  A
C598       Br603   1.937       .  S
C599        C600   1.411       .  A
C600       Br601   1.931       .  S
C605        C606   1.414       .  A
C605        C610   1.400       .  A
C605       Br612   1.925       .  S
C606        C607   1.414       .  A
C607        C608   1.413       .  A
C607       Br614   1.928       .  S
C608        C609   1.410       .  A
C608       Br613   1.928       .  S
C609        C610   1.403       .  A
C610       Br611   1.934       .  S
C615        C616   1.413       .  A
C615        C620   1.403       .  A
C615       Br622   1.926       .  S
C616        C617   1.413       .  A
C617        C618   1.414       .  A
C617       Br624   1.927       .  S
C618        C619   1.412       .  A
C618       Br623   1.928       .  S
C619        C620   1.407       .  A
C620       Br621   1.934       .  S
C625        C626   1.406       .  A
C625        C630   1.415       .  A
C625       Br632   1.929       .  S
C626        C627   1.413       .  A
C627        C628   1.421       .  A
C627       Br634   1.923       .  S
C628        C629   1.417       .  A
C628       Br633   1.930       .  S
C629        C630   1.421       .  A
C630       Br631   1.930       .  S
C635        C636   1.416       .  A
C635        C640   1.417       .  A
C635       Br642   1.929       .  S
C636        C637   1.424       .  A
C637        C638   1.417       .  A
C637       Br644   1.932       .  S
C638        C639   1.407       .  A
C638       Br643   1.930       .  S
C639        C640   1.410       .  A
C640       Br641   1.923       .  S
C645        C646   1.424       .  A
C645        C650   1.417       .  A
C645       Br652   1.931       .  S
C646        C647   1.426       .  A
C647        C648   1.411       .  A
C647       Br654   1.920       .  S
C648        C649   1.403       .  A
C648       Br653   1.937       .  S
C649        C650   1.407       .  A
C650       Br651   1.931       .  S
C655        C656   1.420       .  A
C655        C660   1.407       .  A
C655       Br662   1.920       .  S
C656        C657   1.418       .  A
C657        C658   1.413       .  A
C657       Br664   1.931       .  S
C658        C659   1.409       .  A
C658       Br663   1.930       .  S
C659        C660   1.404       .  A
C660       Br661   1.936       .  S
C665        C666   1.408       .  A
C665        C670   1.401       .  A
C665       Br672   1.925       .  S
C666        C667   1.409       .  A
C667        C668   1.404       .  A
C667       Br674   1.928       .  S
C668        C669   1.407       .  A
C668       Br673   1.932       .  S
C669        C670   1.403       .  A
C670       Br671   1.928       .  S
C675        C676   1.413       .  A
C675        C680   1.407       .  A
C675       Br682   1.930       .  S
C676        C677   1.416       .  A
C677        C678   1.401       .  A
C677      Br2292   1.933       .  S
C678        C679   1.402       .  A
C678      Br2291   1.931       .  S
C679        C680   1.406       .  A
C680       Br681   1.926       .  S
Br683      C2286   1.931       .  S
Br684      C2285   1.933       .  S
C685        C686   1.414       .  A
C685        C690   1.413       .  A
C685       Br692   1.929       .  S
C686        C687   1.413       .  A
C687        C688   1.396       .  A
C687       Br694   1.937       .  S
C688        C689   1.410       .  A
C688       Br693   1.932       .  S
C689        C690   1.413       .  A
C690       Br691   1.929       .  S
C695        C696   1.411       .  A
C695        C700   1.406       .  A
C695       Br702   1.929       .  S
C696        C697   1.414       .  A
C697        C698   1.403       .  A
C697       Br704   1.931       .  S
C698        C699   1.408       .  A
C698       Br703   1.933       .  S
C699        C700   1.410       .  A
C700       Br701   1.930       .  S
C705        C706   1.414       .  A
C705        C710   1.414       .  A
C705       Br712   1.931       .  S
C706        C707   1.406       .  A
C707        C708   1.401       .  A
C707       Br714   1.938       .  S
C708        C709   1.424       .  A
C708       Br713   1.940       .  S
C709        C710   1.416       .  A
C710       Br711   1.929       .  S
C715        C716   1.409       .  A
C715        C720   1.403       .  A
C715       Br722   1.935       .  S
C716        C717   1.415       .  A
C717        C718   1.415       .  A
C717       Br724   1.931       .  S
C718        C719   1.417       .  A
C718       Br723   1.929       .  S
C719        C720   1.419       .  A
C720       Br721   1.936       .  S
C725        C726   1.411       .  A
C725        C730   1.405       .  A
C725       Br732   1.933       .  S
C726        C727   1.411       .  A
C727        C728   1.413       .  A
C727       Br734   1.927       .  S
C728        C729   1.409       .  A
C728       Br733   1.922       .  S
C729        C730   1.405       .  A
C730       Br731   1.920       .  S
C735        C736   1.415       .  A
C735        C740   1.409       .  A
C735       Br742   1.932       .  S
C736        C737   1.414       .  A
C737        C738   1.415       .  A
C737       Br744   1.930       .  S
C738        C739   1.412       .  A
C738       Br743   1.926       .  S
C739        C740   1.405       .  A
C740       Br741   1.925       .  S
C745        C746   1.415       .  A
C745        C750   1.412       .  A
C745       Br752   1.931       .  S
C746        C747   1.412       .  A
C747        C748   1.403       .  A
C747       Br754   1.914       .  S
C748        C749   1.405       .  A
C748       Br753   1.936       .  S
C749        C750   1.410       .  A
C750       Br751   1.930       .  S
C755        C756   1.405       .  A
C755        C760   1.404       .  A
C755       Br762   1.934       .  S
C756        C757   1.410       .  A
C757        C758   1.412       .  A
C757       Br764   1.929       .  S
C758        C759   1.413       .  A
C758       Br763   1.928       .  S
C759        C760   1.414       .  A
C760       Br761   1.918       .  S
C765        C766   1.414       .  A
C765        C770   1.415       .  A
C765       Br772   1.927       .  S
C766        C767   1.416       .  A
C767        C768   1.406       .  A
C767       Br774   1.928       .  S
C768        C769   1.401       .  A
C768       Br773   1.921       .  S
C769        C770   1.409       .  A
C770       Br771   1.923       .  S
C775        C776   1.412       .  A
C775        C780   1.406       .  A
C775       Br782   1.930       .  S
C776        C777   1.413       .  A
C777        C778   1.418       .  A
C777       Br784   1.926       .  S
C778        C779   1.412       .  A
C778       Br783   1.926       .  S
C779        C780   1.406       .  A
C780       Br781   1.925       .  S
C785        C786   1.414       .  A
C785        C790   1.404       .  A
C785       Br792   1.928       .  S
C786        C787   1.410       .  A
C787        C788   1.403       .  A
C787       Br794   1.926       .  S
C788        C789   1.403       .  A
C788       Br793   1.927       .  S
C789        C790   1.402       .  A
C790       Br791   1.931       .  S
C795        C796   1.413       .  A
C795        C800   1.404       .  A
C795       Br802   1.926       .  S
C796        C797   1.417       .  A
C797        C798   1.404       .  A
C797       Br804   1.928       .  S
C798        C799   1.401       .  A
C798       Br803   1.931       .  S
C799        C800   1.403       .  A
C800       Br801   1.928       .  S
N805        C810   1.354       .  A
N805        C809   1.351       .  A
N805        H837   1.041       .  S
N806        C813   1.354       .  A
N806        C814   1.354       .  A
N807        C812   1.353       .  A
N807        C811   1.351       .  A
N807        H838   1.041       .  S
N808        C815   1.344       .  A
N808        C816   1.344       .  A
C809        C817   1.386       .  A
C809        C825   1.414       .  A
C810        C826   1.419       .  A
C810        C818   1.388       .  A
C811        C819   1.387       .  A
C811        C828   1.414       .  A
C812        C827   1.417       .  A
C812        C820   1.388       .  A
C813        C825   1.421       .  A
C813        C821   1.386       .  A
C814        C828   1.421       .  A
C814        C822   1.386       .  A
C815        C823   1.387       .  A
C815        C826   1.406       .  A
C816        C824   1.386       .  A
C816        C827   1.403       .  A
C817        C818   1.380       .  A
C817        H829   1.082       .  S
C818        H830   1.082       .  S
C819        C820   1.379       .  A
C819        H831   1.082       .  S
C820        H832   1.082       .  S
C821        C822   1.384       .  A
C821        H833   1.082       .  S
C822        H834   1.082       .  S
C823        C824   1.377       .  A
C823        H835   1.082       .  S
C824        H836   1.082       .  S
C825       C1580   1.502       .  S
C826       C1600   1.491       .  S
C827       C1590   1.486       .  S
C828       C1570   1.502       .  S
N839        C844   1.353       .  A
N839        C843   1.353       .  A
N839        H871   1.041       .  S
N840        C847   1.353       .  A
N840        C848   1.352       .  A
N841        C846   1.352       .  A
N841        C845   1.351       .  A
N841        H872   1.040       .  S
N842        C849   1.348       .  A
N842        C850   1.349       .  A
C843        C851   1.386       .  A
C843        C859   1.415       .  A
C844        C860   1.416       .  A
C844        C852   1.388       .  A
C845        C853   1.387       .  A
C845        C862   1.410       .  A
C846        C861   1.413       .  A
C846        C854   1.388       .  A
C847        C859   1.419       .  A
C847        C855   1.386       .  A
C848        C862   1.416       .  A
C848        C856   1.385       .  A
C849        C857   1.387       .  A
C849        C860   1.412       .  A
C850        C858   1.386       .  A
C850        C861   1.411       .  A
C851        C852   1.377       .  A
C851        H863   1.082       .  S
C852        H864   1.082       .  S
C853        C854   1.373       .  A
C853        H865   1.082       .  S
C854        H866   1.082       .  S
C855        C856   1.382       .  A
C855        H867   1.082       .  S
C856        H868   1.082       .  S
C857        C858   1.378       .  A
C857        H869   1.082       .  S
C858        H870   1.082       .  S
C859       C1540   1.503       .  S
C860       C1560   1.489       .  S
C861       C1553   1.488       .  S
C862       C1530   1.492       .  S
C873        N891   1.357       .  A
C873        C910   1.455       .  S
C873       C1563   1.488       .  S
N874        N891   1.330       .  A
N874        N896   1.322       .  A
C875        N900   1.338       .  A
C875        H920   1.081       .  S
C875        C913   1.451       .  S
H876        C917   1.081       .  S
C877        N901   1.333       .  A
C877        H906   1.081       .  S
C877        C881   1.452       .  S
Co878       N918   2.096       .  S
Co878       N894   2.095       .  S
Co878      Cl922   2.428       .  S
N879        C917   1.340       .  A
N879        N886   1.321       .  A
Co880       N900   2.068       .  S
Co880       N887   2.088       .  S
Co880      Cl922   2.478       .  S
C881        N919   1.353       .  A
C881       C1500   1.476       .  S
N882        N889   1.317       .  A
N882        N912   1.317       .  A
N883        N901   1.316       .  A
N883        N919   1.326       .  A
N884        C913   1.351       .  A
N884        N894   1.323       .  A
H885        C910   1.082       .  S
N886        N907   1.323       .  A
N887        N905   1.315       .  A
N887        N892   1.329       .  A
C888        N892   1.355       .  A
C888        C916   1.452       .  S
C888       C1490   1.483       .  S
N889        C904   1.349       .  A
C890        N918   1.339       .  A
C890        H924   1.081       .  S
C890        C893   1.465       .  S
C893        N914   1.350       .  A
C893       C1550   1.488       .  S
N894        N900   1.321       .  A
N895        C921   1.352       .  A
N895        N897   1.315       .  A
N895       Co911   2.104       .  S
N896        C910   1.333       .  A
N897        N925   1.313       .  A
N897       Co915   2.054       .  S
H898        C921   1.081       .  S
H899        C916   1.080       .  S
N902        N914   1.326       .  A
N902        N918   1.322       .  A
N902       Co911   2.085       .  S
C903        N907   1.350       .  A
C903        C917   1.450       .  S
C903       C1603   1.463       .  S
C904        H908   1.081       .  S
C904        C923   1.476       .  S
N905        C916   1.329       .  A
N905       Co915   2.059       .  S
C909        N925   1.339       .  A
C909        C921   1.480       .  S
C909       C1513   1.493       .  S
Co911      Cl922   2.486       .  S
N912        C923   1.344       .  A
C913       C1593   1.462       .  S
Co915      Cl922   2.403       .  S
C923       C1523   1.495       .  S
N926        C931   1.355       .  A
N926        C930   1.352       .  A
N926        H958   1.041       .  S
N927        C934   1.348       .  A
N927        C935   1.350       .  A
N928        C933   1.351       .  A
N928        C932   1.349       .  A
N928        H959   1.040       .  S
N929        C936   1.343       .  A
N929        C937   1.344       .  A
C930        C938   1.388       .  A
C930        C946   1.416       .  A
C931        C947   1.418       .  A
C931        C939   1.386       .  A
C932        C940   1.387       .  A
C932        C949   1.412       .  A
C933        C948   1.414       .  A
C933        C941   1.387       .  A
C934        C946   1.409       .  A
C934        C942   1.386       .  A
C935        C949   1.412       .  A
C935        C943   1.387       .  A
C936        C944   1.387       .  A
C936        C947   1.403       .  A
C937        C945   1.386       .  A
C937        C948   1.403       .  A
C938        C939   1.374       .  A
C938        H950   1.081       .  S
C939        H951   1.082       .  S
C940        C941   1.380       .  A
C940        H952   1.082       .  S
C941        H953   1.082       .  S
C942        C943   1.375       .  A
C942        H954   1.082       .  S
C943        H955   1.082       .  S
C944        C945   1.376       .  A
C944        H956   1.082       .  S
C945        H957   1.082       .  S
C946       C1503   1.484       .  S
C947       C1480   1.489       .  S
C948       C1470   1.478       .  S
C949       C1493   1.490       .  S
N960        C965   1.354       .  A
N960        C964   1.355       .  A
N960        H992   1.041       .  S
N961        C968   1.352       .  A
N961        C969   1.351       .  A
N962        C967   1.355       .  A
N962        C966   1.352       .  A
N962        H993   1.041       .  S
N963        C970   1.348       .  A
N963        C971   1.350       .  A
C964        C972   1.388       .  A
C964        C980   1.419       .  A
C965        C981   1.418       .  A
C965        C973   1.387       .  A
C966        C974   1.388       .  A
C966        C983   1.417       .  A
C967        C982   1.417       .  A
C967        C975   1.386       .  A
C968        C980   1.416       .  A
C968        C976   1.386       .  A
C969        C983   1.416       .  A
C969        C977   1.387       .  A
C970        C978   1.387       .  A
C970        C981   1.411       .  A
C971        C979   1.386       .  A
C971        C982   1.411       .  A
C972        C973   1.376       .  A
C972        H984   1.082       .  S
C973        H985   1.082       .  S
C974        C975   1.376       .  A
C974        H986   1.082       .  S
C975        H987   1.082       .  S
C976        C977   1.379       .  A
C976        H988   1.082       .  S
C977        H989   1.082       .  S
C978        C979   1.378       .  A
C978        H990   1.082       .  S
C979        H991   1.082       .  S
C980       C1453   1.498       .  S
C981       C1510   1.494       .  S
C982       C1520   1.501       .  S
C983       C1463   1.491       .  S
C994       N1012   1.345       .  A
C994       C1031   1.467       .  S
C994       C1573   1.482       .  S
N995       N1012   1.322       .  A
N995       N1017   1.323       .  A
N995      Co2640   2.091       .  S
C996       N1021   1.350       .  A
C996       H1041   1.081       .  S
C996       C1034   1.473       .  S
H997       C1038   1.082       .  S
C998       N1022   1.354       .  A
C998       H1027   1.081       .  S
C998       C1002   1.475       .  S
Co999      N1007   2.118   1_545  S
Co999      N1015   2.063   1_545  S
Co999     Cl2651   2.461       .  S
N1000      C1038   1.335       .  A
N1000      N1007   1.323       .  A
N1000     Co2609   2.079       .  S
Co1001     N2608   2.079   1_455  S
Co1001     N1004   2.070       .  S
Co1001     N2629   2.103   1_455  S
Co1001     N1008   2.115       .  S
Co1001    Cl1043   2.456   1_565  S
C1002      N1040   1.340       .  A
C1002      C1543   1.484       .  S
N1003      N1010   1.322       .  A
N1003      N1033   1.332       .  A
N1004      N1022   1.323       .  A
N1004      N1040   1.321       .  A
N1005      C1034   1.341       .  A
N1005      N1015   1.316       .  A
H1006      C1031   1.081       .  S
N1007      N1028   1.334       .  A
N1008      N1026   1.321       .  A
N1008      N1013   1.333       .  A
C1009      N1013   1.362       .  A
C1009      C1037   1.446       .  S
C1009      C1420   1.488       .  S
N1010      C1025   1.335       .  A
N1010     Co1032   2.085       .  S
C1011      N1039   1.339       .  A
C1011      H1045   1.081       .  S
C1011      C1014   1.451       .  S
C1014      N1035   1.362       .  A
C1014      C1430   1.497       .  S
N1015      N1021   1.321       .  A
N1016      C1042   1.355       .  A
N1016      N1018   1.323       .  A
N1016     Co1032   2.129       .  S
N1017      C1031   1.350       .  A
N1018      N1046   1.324       .  A
H1019      C1042   1.081       .  S
H1020      C1037   1.082       .  S
N1021     Co2609   2.104       .  S
N1022     Co1036   2.122   1_565  S
N1023      N1035   1.336       .  A
N1023      N1039   1.324       .  A
N1023     Co2640   2.126       .  S
C1024      N1028   1.360       .  A
C1024      C1038   1.448       .  S
C1024      C1583   1.487       .  S
C1025      H1029   1.082       .  S
C1025      C1044   1.449       .  S
N1026      C1037   1.329       .  A
N1026     Co1036   2.062   1_565  S
C1030      N1046   1.345       .  A
C1030      C1042   1.477       .  S
C1030      C1443   1.496       .  S
Co1032     N2603   2.090   1_455  S
Co1032     N2631   2.124   1_455  S
N1033      C1044   1.357       .  A
C1034      C1410   1.482       .  S
Co1036    Cl1043   2.462       .  S
Cl1043    Co2607   2.460   1_455  S
C1044      C1533   1.481       .  S
C1047      N1065   1.361       .  A
C1047      C1084   1.441       .  S
C1047      C1380   1.477       .  S
N1048      N1065   1.332       .  A
N1048      N1070   1.320       .  A
N1048     Co2693   2.122   1_556  S
C1049      N1074   1.346       .  A
C1049      H1094   1.081       .  S
C1049      C1087   1.475       .  S
H1050      C1091   1.081       .  S
C1051      N1075   1.327       .  A
C1051      H1080   1.080       .  S
C1051      C1055   1.437       .  S
Co1052     N2678   2.047   1_455  S
Co1052     N2668   2.071   1_455  S
Co1052     N1092   2.061       .  S
Co1052     N1068   2.061       .  S
Co1052    Cl1096   2.398       .  S
N1053      C1091   1.344       .  A
N1053      N1060   1.317       .  A
N1053     Co2662   2.080       .  S
Co1054     N2661   2.081   1_455  S
Co1054     N2665   2.123   1_456  S
Co1054     N1074   2.098       .  S
Co1054     N1061   2.104   1_556  S
Co1054    Cl1096   2.495       .  S
C1055      N1093   1.361       .  A
C1055      C1343   1.476       .  S
N1056      N1063   1.315       .  A
N1056      N1086   1.316       .  A
N1056     Co2697   2.068       .  S
N1057      N1075   1.318       .  A
N1057      N1093   1.334       .  A
N1057     Co2662   2.124   1_554  S
N1058      C1087   1.341       .  A
N1058      N1068   1.316       .  A
H1059      C1084   1.081       .  S
N1060      N1081   1.316       .  A
N1060     Co2660   2.070       .  S
N1061      N1079   1.318       .  A
N1061      N1066   1.332       .  A
C1062      N1066   1.357       .  A
C1062      C1090   1.441       .  S
C1062      C1330   1.473       .  S
N1063      C1078   1.348       .  A
N1063     Co2693   2.097       .  S
C1064      N1092   1.332       .  A
C1064      H1098   1.081       .  S
C1064      C1067   1.447       .  S
C1067      N1088   1.357       .  A
C1067      C1370   1.478       .  S
N1068      N1074   1.317       .  A
N1069      C1095   1.352       .  A
N1069      N1071   1.316       .  A
N1069     Co1085   2.103       .  S
N1070      C1084   1.330       .  A
N1070     Co2660   2.047       .  S
N1071      N1099   1.312       .  A
N1071     Co1089   2.055       .  S
H1072      C1095   1.080       .  S
H1073      C1090   1.081       .  S
N1075     Co2697   2.041       .  S
N1076      N1088   1.331       .  A
N1076      N1092   1.319       .  A
N1076     Co1085   2.106   1_556  S
C1077      N1081   1.343       .  A
C1077      C1091   1.469       .  S
C1077      C1400   1.481       .  S
C1078      H1082   1.079       .  S
C1078      C1097   1.482       .  S
N1079      C1090   1.329       .  A
N1079     Co1089   2.053       .  S
C1083      N1099   1.337       .  A
C1083      C1095   1.481       .  S
C1083      C1350   1.493       .  S
Co1085     N2656   2.121   1_454  S
Co1085     N2671   2.098   1_455  S
Co1085    Cl1096   2.499   1_554  S
N1086      C1097   1.342       .  A
C1087      C1390   1.490       .  S
Co1089     N2664   2.068   1_455  S
Co1089     N2683   2.042   1_455  S
Co1089    Cl1096   2.393   1_554  S
C1097      C1363   1.504       .  S
N1100      C1105   1.354       .  A
N1100      C1104   1.353       .  A
N1100      H1132   1.041       .  S
N1101      C1108   1.348       .  A
N1101      C1109   1.350       .  A
N1102      C1107   1.351       .  A
N1102      C1106   1.350       .  A
N1102      H1133   1.041       .  S
N1103      C1110   1.347       .  A
N1103      C1111   1.348       .  A
C1104      C1112   1.387       .  A
C1104      C1120   1.417       .  A
C1105      C1121   1.418       .  A
C1105      C1113   1.387       .  A
C1106      C1114   1.387       .  A
C1106      C1123   1.410       .  A
C1107      C1122   1.411       .  A
C1107      C1115   1.387       .  A
C1108      C1120   1.412       .  A
C1108      C1116   1.387       .  A
C1109      C1123   1.411       .  A
C1109      C1117   1.386       .  A
C1110      C1118   1.387       .  A
C1110      C1121   1.410       .  A
C1111      C1119   1.385       .  A
C1111      C1122   1.408       .  A
C1112      C1113   1.379       .  A
C1112      H1124   1.082       .  S
C1113      H1125   1.082       .  S
C1114      C1115   1.376       .  A
C1114      H1126   1.082       .  S
C1115      H1127   1.082       .  S
C1116      C1117   1.379       .  A
C1116      H1128   1.082       .  S
C1117      H1129   1.082       .  S
C1118      C1119   1.376       .  A
C1118      H1130   1.082       .  S
C1119      H1131   1.082       .  S
C1120      C1313   1.490       .  S
C1121      C1373   1.491       .  S
C1122      C1383   1.486       .  S
C1123      C1323   1.489       .  S
N1134      C1139   1.349       .  A
N1134      C1138   1.350       .  A
N1134      H1166   1.041       .  S
N1135      C1142   1.346       .  A
N1135      C1143   1.345       .  A
N1136      C1141   1.352       .  A
N1136      C1140   1.352       .  A
N1136      H1167   1.041       .  S
N1137      C1144   1.350       .  A
N1137      C1145   1.349       .  A
C1138      C1146   1.387       .  A
C1138      C1154   1.411       .  A
C1139      C1155   1.410       .  A
C1139      C1147   1.387       .  A
C1140      C1148   1.386       .  A
C1140      C1157   1.414       .  A
C1141      C1156   1.415       .  A
C1141      C1149   1.387       .  A
C1142      C1154   1.407       .  A
C1142      C1150   1.386       .  A
C1143      C1157   1.406       .  A
C1143      C1151   1.387       .  A
C1144      C1152   1.386       .  A
C1144      C1155   1.413       .  A
C1145      C1153   1.387       .  A
C1145      C1156   1.414       .  A
C1146      C1147   1.377       .  A
C1146      H1158   1.082       .  S
C1147      H1159   1.082       .  S
C1148      C1149   1.377       .  A
C1148      H1160   1.082       .  S
C1149      H1161   1.082       .  S
C1150      C1151   1.378       .  A
C1150      H1162   1.082       .  S
C1151      H1163   1.082       .  S
C1152      C1153   1.379       .  A
C1152      H1164   1.082       .  S
C1153      H1165   1.082       .  S
C1154      C1403   1.486       .  S
C1155      C1300   1.486       .  S
C1156      C1293   1.493       .  S
C1157      C1393   1.487       .  S
C1168      N1186   1.348       .  A
C1168      C1205   1.453       .  S
C1168      C1483   1.467       .  S
N1169      N1186   1.327       .  A
N1169      N1191   1.320       .  A
N1169     Co1206   2.079       .  S
C1170      N1195   1.346       .  A
C1170      H1215   1.080       .  S
C1170      C1208   1.475       .  S
H1171      C1212   1.081       .  S
C1172      N1196   1.338       .  A
C1172      H1201   1.082       .  S
C1172      C1176   1.461       .  S
Co1173     N2799   2.078       .  S
Co1173     N1181   2.075   1_655  S
Co1173     N2017   2.066   1_565  S
Co1173    Cl1217   2.461   1_655  S
N1174      C1212   1.346       .  A
N1174      N1181   1.319       .  A
N1174     Co1175   2.110       .  S
Co1175     N1178   2.093       .  S
Co1175    Cl1217   2.442       .  S
C1176      N1214   1.353       .  A
C1176      C1310   1.487       .  S
N1177      N1184   1.318       .  A
N1177      N1207   1.325       .  A
N1177     Co2818   2.090       .  S
N1178      N1196   1.321       .  A
N1178      N1214   1.325       .  A
N1179      C1208   1.354       .  A
N1179      N1189   1.327       .  A
H1180      C1205   1.080       .  S
N1181      N1202   1.323       .  A
N1182      N1200   1.322       .  A
N1182      N1187   1.323       .  A
C1183      N1187   1.347       .  A
C1183      C1211   1.466       .  S
C1183      C1290   1.481       .  S
N1184      C1199   1.336       .  A
N1184     Co1206   2.079       .  S
C1185      N1213   1.331       .  A
C1185      H1219   1.075       .  S
C1185      C1188   1.449       .  S
C1188      N1209   1.346       .  A
C1188      C1473   1.460       .  S
N1189      N1195   1.317       .  A
N1190      C1216   1.335       .  A
N1190      N1192   1.317       .  A
N1191      C1205   1.335       .  A
N1191     Co2781   2.078       .  S
N1192      N1220   1.328       .  A
N1192     Co2014   2.102       .  S
H1193      C1216   1.082       .  S
H1194      C1211   1.082       .  S
N1196     Co1210   2.082       .  S
N1197      N1209   1.325       .  A
N1197      N1213   1.318       .  A
C1198      N1202   1.349       .  A
C1198      C1212   1.473       .  S
C1198      C1460   1.498       .  S
C1199      H1203   1.082       .  S
C1199      C1218   1.464       .  S
N1200      C1211   1.344       .  A
C1204      N1220   1.358       .  A
C1204      C1216   1.455       .  S
C1204      C1303   1.480       .  S
Co1206    Cl2825   2.437       .  S
N1207      C1218   1.354       .  A
C1208      C1450   1.514       .  S
Co1210     N2785   2.090   1_455  S
Co1210     N1996   2.101   1_465  S
Co1210    Cl1217   2.456       .  S
N1213     Co1977   2.066       .  S
Cl1217    Co2814   2.438   1_455  S
C1218      C1320   1.490       .  S
N1221      C1226   1.349       .  A
N1221      C1225   1.349       .  A
N1221      H1253   1.041       .  S
N1222      C1229   1.352       .  A
N1222      C1230   1.351       .  A
N1223      C1228   1.361       .  A
N1223      C1227   1.362       .  A
N1223      H1254   1.041       .  S
N1224      C1231   1.354       .  A
N1224      C1232   1.352       .  A
C1225      C1233   1.387       .  A
C1225      C1241   1.408       .  A
C1226      C1242   1.409       .  A
C1226      C1234   1.387       .  A
C1227      C1235   1.388       .  A
C1227      C1244   1.434       .  A
C1228      C1243   1.433       .  A
C1228      C1236   1.387       .  A
C1229      C1241   1.414       .  A
C1229      C1237   1.385       .  A
C1230      C1244   1.418       .  A
C1230      C1238   1.388       .  A
C1231      C1239   1.384       .  A
C1231      C1242   1.417       .  A
C1232      C1240   1.389       .  A
C1232      C1243   1.420       .  A
C1233      C1234   1.376       .  A
C1233      H1245   1.082       .  S
C1234      H1246   1.082       .  S
C1235      C1236   1.387       .  A
C1235      H1247   1.082       .  S
C1236      H1248   1.082       .  S
C1237      C1238   1.379       .  A
C1237      H1249   1.082       .  S
C1238      H1250   1.082       .  S
C1239      C1240   1.379       .  A
C1239      H1251   1.082       .  S
C1240      H1252   1.082       .  S
C1241      C1333   1.487       .  S
C1242      C1340   1.495       .  S
C1243      C1433   1.518       .  S
C1244      C1440   1.520       .  S
N1255      C1260   1.351       .  A
N1255      C1259   1.351       .  A
N1255      H1287   1.040       .  S
N1256      C1263   1.352       .  A
N1256      C1264   1.352       .  A
N1257      C1262   1.353       .  A
N1257      C1261   1.354       .  A
N1257      H1288   1.034       .  S
N1258      C1265   1.351       .  A
N1258      C1266   1.350       .  A
C1259      C1267   1.387       .  A
C1259      C1275   1.412       .  A
C1260      C1276   1.411       .  A
C1260      C1268   1.386       .  A
C1261      C1269   1.388       .  A
C1261      C1278   1.421       .  A
C1262      C1277   1.419       .  A
C1262      C1270   1.387       .  A
C1263      C1275   1.415       .  A
C1263      C1271   1.386       .  A
C1264      C1278   1.418       .  A
C1264      C1272   1.388       .  A
C1265      C1273   1.385       .  A
C1265      C1276   1.410       .  A
C1266      C1274   1.389       .  A
C1266      C1277   1.415       .  A
C1267      C1268   1.376       .  A
C1267      H1279   1.082       .  S
C1268      H1280   1.082       .  S
C1269      C1270   1.379       .  A
C1269      H1281   1.082       .  S
C1270      H1282   1.082       .  S
C1271      C1272   1.370       .  A
C1271      H1283   1.082       .  S
C1272      H1284   1.082       .  S
C1273      C1274   1.369       .  A
C1273      H1285   1.082       .  S
C1274      H1286   1.082       .  S
C1275      C1353   1.490       .  S
C1276      C1360   1.488       .  S
C1277      C1413   1.486       .  S
C1278      C1423   1.494       .  S
C1289      C1290   1.416       .  A
C1289      C1294   1.408       .  A
C1289     Br1296   1.931       .  S
C1290      C1291   1.408       .  A
C1291      C1292   1.409       .  A
C1291     Br1298   1.930       .  S
C1292      C1293   1.413       .  A
C1292     Br1297   1.930       .  S
C1293      C1294   1.410       .  A
C1294     Br1295   1.934       .  S
C1299      C1300   1.406       .  A
C1299      C1304   1.405       .  A
C1299     Br1306   1.933       .  S
C1300      C1301   1.411       .  A
C1301      C1302   1.409       .  A
C1301     Br1308   1.929       .  S
C1302      C1303   1.408       .  A
C1302     Br1307   1.929       .  S
C1303      C1304   1.415       .  A
C1304     Br1305   1.925       .  S
C1309      C1310   1.412       .  A
C1309      C1314   1.409       .  A
C1309     Br1316   1.932       .  S
C1310      C1311   1.422       .  A
C1311      C1312   1.408       .  A
C1311     Br1318   1.936       .  S
C1312      C1313   1.407       .  A
C1312     Br1317   1.934       .  S
C1313      C1314   1.410       .  A
C1314     Br1315   1.930       .  S
C1319      C1320   1.420       .  A
C1319      C1324   1.409       .  A
C1319     Br1326   1.934       .  S
C1320      C1321   1.414       .  A
C1321      C1322   1.407       .  A
C1321     Br1328   1.933       .  S
C1322      C1323   1.408       .  A
C1322     Br1327   1.931       .  S
C1323      C1324   1.410       .  A
C1324     Br1325   1.935       .  S
C1329      C1330   1.412       .  A
C1329      C1334   1.404       .  A
C1329     Br1336   1.933       .  S
C1330      C1331   1.407       .  A
C1331      C1332   1.409       .  A
C1331     Br1338   1.927       .  S
C1332      C1333   1.410       .  A
C1332     Br1337   1.927       .  S
C1333      C1334   1.408       .  A
C1334     Br1335   1.931       .  S
C1339      C1340   1.412       .  A
C1339      C1344   1.411       .  A
C1339     Br1346   1.927       .  S
C1340      C1341   1.412       .  A
C1341      C1342   1.407       .  A
C1341     Br1348   1.933       .  S
C1342      C1343   1.413       .  A
C1342     Br1347   1.934       .  S
C1343      C1344   1.407       .  A
C1344     Br1345   1.927       .  S
C1349      C1350   1.416       .  A
C1349      C1354   1.411       .  A
C1349     Br1356   1.929       .  S
C1350      C1351   1.428       .  A
C1351      C1352   1.402       .  A
C1351     Br1358   1.941       .  S
C1352      C1353   1.404       .  A
C1352     Br1357   1.938       .  S
C1353      C1354   1.410       .  A
C1354     Br1355   1.931       .  S
C1359      C1360   1.405       .  A
C1359      C1364   1.410       .  A
C1359     Br1366   1.932       .  S
C1360      C1361   1.401       .  A
C1361      C1362   1.406       .  A
C1361     Br1368   1.937       .  S
C1362      C1363   1.432       .  A
C1362     Br1367   1.938       .  S
C1363      C1364   1.422       .  A
C1364     Br1365   1.928       .  S
C1369      C1370   1.412       .  A
C1369      C1374   1.405       .  A
C1369     Br1376   1.935       .  S
C1370      C1371   1.409       .  A
C1371      C1372   1.411       .  A
C1371     Br1378   1.928       .  S
C1372      C1373   1.411       .  A
C1372     Br1377   1.929       .  S
C1373      C1374   1.411       .  A
C1374     Br1375   1.933       .  S
C1379      C1380   1.416       .  A
C1379      C1384   1.405       .  A
C1379     Br1386   1.935       .  S
C1380      C1381   1.410       .  A
C1381      C1382   1.409       .  A
C1381     Br1388   1.929       .  S
C1382      C1383   1.410       .  A
C1382     Br1387   1.930       .  S
C1383      C1384   1.407       .  A
C1384     Br1385   1.934       .  S
C1389      C1390   1.425       .  A
C1389      C1394   1.404       .  A
C1389     Br1396   1.938       .  S
C1390      C1391   1.416       .  A
C1391      C1392   1.408       .  A
C1391     Br1398   1.931       .  S
C1392      C1393   1.410       .  A
C1392     Br1397   1.932       .  S
C1393      C1394   1.405       .  A
C1394     Br1395   1.937       .  S
C1399      C1400   1.415       .  A
C1399      C1404   1.409       .  A
C1399     Br1406   1.931       .  S
C1400      C1401   1.418       .  A
C1401      C1402   1.400       .  A
C1401     Br1408   1.938       .  S
C1402      C1403   1.407       .  A
C1402     Br1407   1.937       .  S
C1403      C1404   1.411       .  A
C1404     Br1405   1.931       .  S
C1409      C1410   1.414       .  A
C1409      C1414   1.400       .  A
C1409     Br1416   1.926       .  S
C1410      C1411   1.414       .  A
C1411      C1412   1.413       .  A
C1411     Br1418   1.928       .  S
C1412      C1413   1.410       .  A
C1412     Br1417   1.928       .  S
C1413      C1414   1.403       .  A
C1414     Br1415   1.934       .  S
C1419      C1420   1.415       .  A
C1419      C1424   1.403       .  A
C1419     Br1426   1.926       .  S
C1420      C1421   1.414       .  A
C1421      C1422   1.415       .  A
C1421     Br1428   1.927       .  S
C1422      C1423   1.412       .  A
C1422     Br1427   1.928       .  S
C1423      C1424   1.406       .  A
C1424     Br1425   1.934       .  S
C1429      C1430   1.406       .  A
C1429      C1434   1.414       .  A
C1429     Br1436   1.928       .  S
C1430      C1431   1.412       .  A
C1431      C1432   1.420       .  A
C1431     Br1438   1.923       .  S
C1432      C1433   1.417       .  A
C1432     Br1437   1.930       .  S
C1433      C1434   1.420       .  A
C1434     Br1435   1.930       .  S
C1439      C1440   1.416       .  A
C1439      C1444   1.417       .  A
C1439     Br1446   1.930       .  S
C1440      C1441   1.424       .  A
C1441      C1442   1.417       .  A
C1441     Br1448   1.932       .  S
C1442      C1443   1.407       .  A
C1442     Br1447   1.929       .  S
C1443      C1444   1.410       .  A
C1444     Br1445   1.922       .  S
C1449      C1450   1.424       .  A
C1449      C1454   1.417       .  A
C1449     Br1456   1.931       .  S
C1450      C1451   1.426       .  A
C1451      C1452   1.411       .  A
C1451     Br1458   1.920       .  S
C1452      C1453   1.403       .  A
C1452     Br1457   1.937       .  S
C1453      C1454   1.407       .  A
C1454     Br1455   1.931       .  S
C1459      C1460   1.420       .  A
C1459      C1464   1.407       .  A
C1459     Br1466   1.920       .  S
C1460      C1461   1.418       .  A
C1461      C1462   1.413       .  A
C1461     Br1468   1.931       .  S
C1462      C1463   1.409       .  A
C1462     Br1467   1.930       .  S
C1463      C1464   1.404       .  A
C1464     Br1465   1.936       .  S
C1469      C1470   1.408       .  A
C1469      C1474   1.401       .  A
C1469     Br1476   1.925       .  S
C1470      C1471   1.409       .  A
C1471      C1472   1.404       .  A
C1471     Br1478   1.928       .  S
C1472      C1473   1.407       .  A
C1472     Br1477   1.932       .  S
C1473      C1474   1.403       .  A
C1474     Br1475   1.928       .  S
C1479      C1480   1.413       .  A
C1479      C1484   1.407       .  A
C1479     Br1486   1.930       .  S
C1480      C1481   1.416       .  A
C1481      C1482   1.401       .  A
C1481     Br3096   1.933       .  S
C1482      C1483   1.402       .  A
C1482     Br3095   1.931       .  S
C1483      C1484   1.406       .  A
C1484     Br1485   1.926       .  S
Br1487     C3090   1.931       .  S
Br1488     C3089   1.933       .  S
C1489      C1490   1.414       .  A
C1489      C1494   1.413       .  A
C1489     Br1496   1.928       .  S
C1490      C1491   1.413       .  A
C1491      C1492   1.396       .  A
C1491     Br1498   1.937       .  S
C1492      C1493   1.410       .  A
C1492     Br1497   1.932       .  S
C1493      C1494   1.413       .  A
C1494     Br1495   1.929       .  S
C1499      C1500   1.411       .  A
C1499      C1504   1.406       .  A
C1499     Br1506   1.930       .  S
C1500      C1501   1.414       .  A
C1501      C1502   1.403       .  A
C1501     Br1508   1.931       .  S
C1502      C1503   1.408       .  A
C1502     Br1507   1.933       .  S
C1503      C1504   1.410       .  A
C1504     Br1505   1.930       .  S
C1509      C1510   1.414       .  A
C1509      C1514   1.414       .  A
C1509     Br1516   1.931       .  S
C1510      C1511   1.406       .  A
C1511      C1512   1.401       .  A
C1511     Br1518   1.938       .  S
C1512      C1513   1.424       .  A
C1512     Br1517   1.940       .  S
C1513      C1514   1.416       .  A
C1514     Br1515   1.929       .  S
C1519      C1520   1.409       .  A
C1519      C1524   1.403       .  A
C1519     Br1526   1.935       .  S
C1520      C1521   1.415       .  A
C1521      C1522   1.415       .  A
C1521     Br1528   1.931       .  S
C1522      C1523   1.417       .  A
C1522     Br1527   1.929       .  S
C1523      C1524   1.419       .  A
C1524     Br1525   1.936       .  S
C1529      C1530   1.411       .  A
C1529      C1534   1.405       .  A
C1529     Br1536   1.932       .  S
C1530      C1531   1.411       .  A
C1531      C1532   1.413       .  A
C1531     Br1538   1.928       .  S
C1532      C1533   1.409       .  A
C1532     Br1537   1.921       .  S
C1533      C1534   1.405       .  A
C1534     Br1535   1.920       .  S
C1539      C1540   1.415       .  A
C1539      C1544   1.409       .  A
C1539     Br1546   1.932       .  S
C1540      C1541   1.414       .  A
C1541      C1542   1.415       .  A
C1541     Br1548   1.930       .  S
C1542      C1543   1.412       .  A
C1542     Br1547   1.927       .  S
C1543      C1544   1.405       .  A
C1544     Br1545   1.925       .  S
C1549      C1550   1.415       .  A
C1549      C1554   1.412       .  A
C1549     Br1556   1.931       .  S
C1550      C1551   1.412       .  A
C1551      C1552   1.403       .  A
C1551     Br1558   1.914       .  S
C1552      C1553   1.405       .  A
C1552     Br1557   1.936       .  S
C1553      C1554   1.410       .  A
C1554     Br1555   1.930       .  S
C1559      C1560   1.405       .  A
C1559      C1564   1.404       .  A
C1559     Br1566   1.934       .  S
C1560      C1561   1.410       .  A
C1561      C1562   1.412       .  A
C1561     Br1568   1.929       .  S
C1562      C1563   1.412       .  A
C1562     Br1567   1.928       .  S
C1563      C1564   1.414       .  A
C1564     Br1565   1.918       .  S
C1569      C1570   1.414       .  A
C1569      C1574   1.415       .  A
C1569     Br1576   1.927       .  S
C1570      C1571   1.416       .  A
C1571      C1572   1.406       .  A
C1571     Br1578   1.928       .  S
C1572      C1573   1.401       .  A
C1572     Br1577   1.921       .  S
C1573      C1574   1.409       .  A
C1574     Br1575   1.922       .  S
C1579      C1580   1.412       .  A
C1579      C1584   1.406       .  A
C1579     Br1586   1.930       .  S
C1580      C1581   1.413       .  A
C1581      C1582   1.418       .  A
C1581     Br1588   1.926       .  S
C1582      C1583   1.412       .  A
C1582     Br1587   1.926       .  S
C1583      C1584   1.406       .  A
C1584     Br1585   1.924       .  S
C1589      C1590   1.414       .  A
C1589      C1594   1.404       .  A
C1589     Br1596   1.928       .  S
C1590      C1591   1.410       .  A
C1591      C1592   1.403       .  A
C1591     Br1598   1.926       .  S
C1592      C1593   1.403       .  A
C1592     Br1597   1.927       .  S
C1593      C1594   1.402       .  A
C1594     Br1595   1.931       .  S
C1599      C1600   1.413       .  A
C1599      C1604   1.404       .  A
C1599     Br1606   1.926       .  S
C1600      C1601   1.417       .  A
C1601      C1602   1.404       .  A
C1601     Br1608   1.928       .  S
C1602      C1603   1.401       .  A
C1602     Br1607   1.931       .  S
C1603      C1604   1.403       .  A
C1604     Br1605   1.928       .  S
N1609      C1614   1.354       .  A
N1609      C1613   1.351       .  A
N1609      H1641   1.041       .  S
N1610      C1617   1.354       .  A
N1610      C1618   1.353       .  A
N1611      C1616   1.353       .  A
N1611      C1615   1.351       .  A
N1611      H1642   1.041       .  S
N1612      C1619   1.344       .  A
N1612      C1620   1.344       .  A
C1613      C1621   1.386       .  A
C1613      C1629   1.414       .  A
C1614      C1630   1.419       .  A
C1614      C1622   1.388       .  A
C1615      C1623   1.387       .  A
C1615      C1632   1.414       .  A
C1616      C1631   1.416       .  A
C1616      C1624   1.387       .  A
C1617      C1629   1.420       .  A
C1617      C1625   1.386       .  A
C1618      C1632   1.421       .  A
C1618      C1626   1.386       .  A
C1619      C1627   1.387       .  A
C1619      C1630   1.406       .  A
C1620      C1628   1.386       .  A
C1620      C1631   1.404       .  A
C1621      C1622   1.380       .  A
C1621      H1633   1.082       .  S
C1622      H1634   1.082       .  S
C1623      C1624   1.378       .  A
C1623      H1635   1.082       .  S
C1624      H1636   1.082       .  S
C1625      C1626   1.384       .  A
C1625      H1637   1.082       .  S
C1626      H1638   1.082       .  S
C1627      C1628   1.377       .  A
C1627      H1639   1.082       .  S
C1628      H1640   1.082       .  S
C1629      C2384   1.501       .  S
C1630      C2404   1.491       .  S
C1631      C2394   1.487       .  S
C1632      C2374   1.500       .  S
N1643      C1648   1.352       .  A
N1643      C1647   1.352       .  A
N1643      H1675   1.041       .  S
N1644      C1651   1.353       .  A
N1644      C1652   1.352       .  A
N1645      C1650   1.352       .  A
N1645      C1649   1.351       .  A
N1645      H1676   1.041       .  S
N1646      C1653   1.348       .  A
N1646      C1654   1.349       .  A
C1647      C1655   1.387       .  A
C1647      C1663   1.414       .  A
C1648      C1664   1.414       .  A
C1648      C1656   1.387       .  A
C1649      C1657   1.387       .  A
C1649      C1666   1.410       .  A
C1650      C1665   1.412       .  A
C1650      C1658   1.388       .  A
C1651      C1663   1.419       .  A
C1651      C1659   1.386       .  A
C1652      C1666   1.416       .  A
C1652      C1660   1.385       .  A
C1653      C1661   1.387       .  A
C1653      C1664   1.411       .  A
C1654      C1662   1.386       .  A
C1654      C1665   1.410       .  A
C1655      C1656   1.376       .  A
C1655      H1667   1.082       .  S
C1656      H1668   1.082       .  S
C1657      C1658   1.373       .  A
C1657      H1669   1.082       .  S
C1658      H1670   1.082       .  S
C1659      C1660   1.382       .  A
C1659      H1671   1.082       .  S
C1660      H1672   1.082       .  S
C1661      C1662   1.378       .  A
C1661      H1673   1.082       .  S
C1662      H1674   1.082       .  S
C1663      C2344   1.501       .  S
C1664      C2364   1.488       .  S
C1665      C2357   1.487       .  S
C1666      C2334   1.492       .  S
C1677      N1695   1.356       .  A
C1677      C1714   1.454       .  S
C1677      C2367   1.487       .  S
N1678      N1695   1.330       .  A
N1678      N1700   1.322       .  A
N1678     Co2519   2.106       .  S
C1679      N1704   1.339       .  A
C1679      H1724   1.081       .  S
C1679      C1717   1.452       .  S
H1680      C1721   1.081       .  S
C1681      N1705   1.334       .  A
C1681      H1710   1.081       .  S
C1681      C1685   1.452       .  S
Co1682     N2504   2.076   1_545  S
Co1682     N2494   2.096   1_545  S
Co1682     N1722   2.094       .  S
Co1682     N1698   2.096       .  S
Co1682    Cl1726   2.427       .  S
N1683      C1721   1.340       .  A
N1683      N1690   1.321       .  A
N1683     Co2488   2.066       .  S
Co1684     N2487   2.065   1_545  S
Co1684     N2491   2.081   1_545  S
Co1684     N1704   2.068       .  S
Co1684     N1691   2.087       .  S
Co1684    Cl1726   2.478       .  S
C1685      N1723   1.353       .  A
C1685      C2304   1.476       .  S
N1686      N1693   1.316       .  A
N1686      N1716   1.317       .  A
N1686     Co2523   2.072       .  S
N1687      N1705   1.316       .  A
N1687      N1723   1.326       .  A
N1687     Co2488   2.081       .  S
N1688      C1717   1.351       .  A
N1688      N1698   1.323       .  A
H1689      C1714   1.082       .  S
N1690      N1711   1.323       .  A
N1690     Co2486   2.095       .  S
N1691      N1709   1.315       .  A
N1691      N1696   1.329       .  A
C1692      N1696   1.355       .  A
C1692      C1720   1.452       .  S
C1692      C2294   1.483       .  S
N1693      C1708   1.350       .  A
N1693     Co2519   2.096       .  S
C1694      N1722   1.339       .  A
C1694      H1728   1.081       .  S
C1694      C1697   1.464       .  S
C1697      N1718   1.349       .  A
C1697      C2354   1.486       .  S
N1698      N1704   1.321       .  A
N1699      C1725   1.353       .  A
N1699      N1701   1.315       .  A
N1699     Co1715   2.105       .  S
N1700      C1714   1.333       .  A
N1700     Co2486   2.076       .  S
N1701      N1729   1.313       .  A
N1701     Co1719   2.053       .  S
H1702      C1725   1.081       .  S
H1703      C1720   1.080       .  S
N1705     Co2523   2.064       .  S
N1706      N1718   1.325       .  A
N1706      N1722   1.322       .  A
N1706     Co1715   2.084       .  S
C1707      N1711   1.349       .  A
C1707      C1721   1.450       .  S
C1707      C2407   1.463       .  S
C1708      H1712   1.081       .  S
C1708      C1727   1.477       .  S
N1709      C1720   1.329       .  A
N1709     Co1719   2.060       .  S
C1713      N1729   1.339       .  A
C1713      C1725   1.481       .  S
C1713      C2317   1.493       .  S
Co1715     N2482   2.106   1_545  S
Co1715     N2497   2.096   1_545  S
Co1715    Cl1726   2.487       .  S
N1716      C1727   1.344       .  A
C1717      C2397   1.463       .  S
Co1719     N2490   2.072   1_545  S
Co1719     N2509   2.064   1_545  S
Co1719    Cl1726   2.402       .  S
C1727      C2327   1.496       .  S
N1730      C1735   1.355       .  A
N1730      C1734   1.352       .  A
N1730      H1762   1.041       .  S
N1731      C1738   1.348       .  A
N1731      C1739   1.350       .  A
N1732      C1737   1.351       .  A
N1732      C1736   1.350       .  A
N1732      H1763   1.040       .  S
N1733      C1740   1.343       .  A
N1733      C1741   1.344       .  A
C1734      C1742   1.388       .  A
C1734      C1750   1.416       .  A
C1735      C1751   1.418       .  A
C1735      C1743   1.386       .  A
C1736      C1744   1.387       .  A
C1736      C1753   1.413       .  A
C1737      C1752   1.414       .  A
C1737      C1745   1.387       .  A
C1738      C1750   1.409       .  A
C1738      C1746   1.386       .  A
C1739      C1753   1.412       .  A
C1739      C1747   1.387       .  A
C1740      C1748   1.387       .  A
C1740      C1751   1.404       .  A
C1741      C1749   1.386       .  A
C1741      C1752   1.403       .  A
C1742      C1743   1.374       .  A
C1742      H1754   1.081       .  S
C1743      H1755   1.082       .  S
C1744      C1745   1.380       .  A
C1744      H1756   1.082       .  S
C1745      H1757   1.082       .  S
C1746      C1747   1.375       .  A
C1746      H1758   1.082       .  S
C1747      H1759   1.082       .  S
C1748      C1749   1.376       .  A
C1748      H1760   1.082       .  S
C1749      H1761   1.082       .  S
C1750      C2307   1.484       .  S
C1751      C2284   1.490       .  S
C1752      C2274   1.478       .  S
C1753      C2297   1.490       .  S
N1764      C1769   1.354       .  A
N1764      C1768   1.355       .  A
N1764      H1796   1.041       .  S
N1765      C1772   1.352       .  A
N1765      C1773   1.351       .  A
N1766      C1771   1.355       .  A
N1766      C1770   1.352       .  A
N1766      H1797   1.041       .  S
N1767      C1774   1.348       .  A
N1767      C1775   1.350       .  A
C1768      C1776   1.388       .  A
C1768      C1784   1.419       .  A
C1769      C1785   1.419       .  A
C1769      C1777   1.387       .  A
C1770      C1778   1.388       .  A
C1770      C1787   1.417       .  A
C1771      C1786   1.417       .  A
C1771      C1779   1.386       .  A
C1772      C1784   1.415       .  A
C1772      C1780   1.386       .  A
C1773      C1787   1.416       .  A
C1773      C1781   1.387       .  A
C1774      C1782   1.387       .  A
C1774      C1785   1.411       .  A
C1775      C1783   1.386       .  A
C1775      C1786   1.411       .  A
C1776      C1777   1.376       .  A
C1776      H1788   1.082       .  S
C1777      H1789   1.082       .  S
C1778      C1779   1.376       .  A
C1778      H1790   1.082       .  S
C1779      H1791   1.082       .  S
C1780      C1781   1.379       .  A
C1780      H1792   1.082       .  S
C1781      H1793   1.082       .  S
C1782      C1783   1.378       .  A
C1782      H1794   1.082       .  S
C1783      H1795   1.082       .  S
C1784      C2257   1.499       .  S
C1785      C2314   1.495       .  S
C1786      C2324   1.501       .  S
C1787      C2267   1.492       .  S
C1798      N1816   1.345       .  A
C1798      C1835   1.467       .  S
C1798      C2377   1.480       .  S
N1799      N1816   1.322       .  A
N1799      N1821   1.323       .  A
C1800      N1825   1.350       .  A
C1800      H1845   1.081       .  S
C1800      C1838   1.473       .  S
H1801      C1842   1.082       .  S
C1802      N1826   1.354       .  A
C1802      H1831   1.081       .  S
C1802      C1806   1.475       .  S
Co1803     N2625   2.098       .  S
Co1803     N1811   2.117       .  S
Co1803     N2647   2.092       .  S
Co1803     N1819   2.062       .  S
N1804      C1842   1.335       .  A
N1804      N1811   1.322       .  A
Co1805     N1808   2.069       .  S
Co1805     N1812   2.115       .  S
Co1805    Cl1847   2.458       .  S
C1806      N1844   1.340       .  A
C1806      C2347   1.484       .  S
N1807      N1814   1.323       .  A
N1807      N1837   1.332       .  A
N1807     Co2644   2.103       .  S
N1808      N1826   1.323       .  A
N1808      N1844   1.321       .  A
N1809      C1838   1.340       .  A
N1809      N1819   1.316       .  A
H1810      C1835   1.081       .  S
N1811      N1832   1.334       .  A
N1812      N1830   1.321       .  A
N1812      N1817   1.333       .  A
C1813      N1817   1.361       .  A
C1813      C1841   1.445       .  S
C1813      C2224   1.485       .  S
N1814      C1829   1.335       .  A
N1814     Co1836   2.086       .  S
C1815      N1843   1.339       .  A
C1815      H1849   1.081       .  S
C1815      C1818   1.451       .  S
C1818      N1839   1.361       .  A
C1818      C2234   1.494       .  S
N1819      N1825   1.321       .  A
N1820      C1846   1.356       .  A
N1820      N1822   1.323       .  A
N1820     Co1836   2.130       .  S
N1821      C1835   1.350       .  A
N1821     Co2607   2.098       .  S
N1822      N1850   1.324       .  A
N1822     Co2644   2.087       .  S
H1823      C1846   1.081       .  S
H1824      C1841   1.082       .  S
N1826     Co1840   2.123       .  S
N1827      N1839   1.336       .  A
N1827      N1843   1.323       .  A
C1828      N1832   1.360       .  A
C1828      C1842   1.447       .  S
C1828      C2387   1.487       .  S
C1829      H1833   1.082       .  S
C1829      C1848   1.448       .  S
N1830      C1841   1.330       .  A
N1830     Co1840   2.064       .  S
C1834      N1850   1.344       .  A
C1834      C1846   1.478       .  S
C1834      C2247   1.497       .  S
Co1836    Cl2651   2.459       .  S
N1837      C1848   1.357       .  A
C1838      C2214   1.481       .  S
Co1840     N2611   2.103       .  S
Co1840     N2626   2.088       .  S
Co1840    Cl1847   2.462       .  S
N1843     Co2607   2.092       .  S
Cl1847    Co2640   2.459       .  S
C1848      C2337   1.480       .  S
C1851      N1869   1.360       .  A
C1851      C1888   1.441       .  S
C1851      C2184   1.476       .  S
N1852      N1869   1.332       .  A
N1852      N1874   1.320       .  A
C1853      N1878   1.346       .  A
C1853      H1898   1.081       .  S
C1853      C1891   1.475       .  S
H1854      C1895   1.081       .  S
C1855      N1879   1.327       .  A
C1855      H1884   1.080       .  S
C1855      C1859   1.438       .  S
Co1856     N1896   2.060       .  S
Co1856     N1872   2.062       .  S
Co1856    Cl1900   2.398       .  S
N1857      C1895   1.345       .  A
N1857      N1864   1.317       .  A
Co1858     N1878   2.099       .  S
Co1858     N1865   2.106   1_556  S
Co1858    Cl1900   2.496       .  S
C1859      N1897   1.361       .  A
C1859      C2147   1.476       .  S
N1860      N1867   1.315       .  A
N1860      N1890   1.316       .  A
N1861      N1879   1.318       .  A
N1861      N1897   1.334       .  A
N1862      C1891   1.342       .  A
N1862      N1872   1.316       .  A
H1863      C1888   1.081       .  S
N1864      N1885   1.316       .  A
N1865      N1883   1.318       .  A
N1865      N1870   1.332       .  A
C1866      N1870   1.358       .  A
C1866      C1894   1.441       .  S
C1866      C2134   1.474       .  S
N1867      C1882   1.348       .  A
C1868      N1896   1.331       .  A
C1868      H1902   1.081       .  S
C1868      C1871   1.447       .  S
C1871      N1892   1.356       .  A
C1871      C2174   1.477       .  S
N1872      N1878   1.318       .  A
N1873      C1899   1.352       .  A
N1873      N1875   1.316       .  A
N1873     Co1889   2.103       .  S
N1874      C1888   1.329       .  A
N1875      N1903   1.311       .  A
N1875     Co1893   2.052       .  S
H1876      C1899   1.081       .  S
H1877      C1894   1.081       .  S
N1880      N1892   1.331       .  A
N1880      N1896   1.319       .  A
N1880     Co1889   2.105   1_556  S
C1881      N1885   1.343       .  A
C1881      C1895   1.469       .  S
C1881      C2204   1.482       .  S
C1882      H1886   1.079       .  S
C1882      C1901   1.482       .  S
N1883      C1894   1.330       .  A
N1883     Co1893   2.054       .  S
C1887      N1903   1.336       .  A
C1887      C1899   1.481       .  S
C1887      C2154   1.490       .  S
Co1889    Cl1900   2.499   1_554  S
N1890      C1901   1.343       .  A
C1891      C2194   1.490       .  S
Co1893    Cl1900   2.393   1_554  S
C1901      C2167   1.505       .  S
N1904      C1909   1.354       .  A
N1904      C1908   1.353       .  A
N1904      H1936   1.041       .  S
N1905      C1912   1.348       .  A
N1905      C1913   1.350       .  A
N1906      C1911   1.351       .  A
N1906      C1910   1.350       .  A
N1906      H1937   1.041       .  S
N1907      C1914   1.347       .  A
N1907      C1915   1.348       .  A
C1908      C1916   1.387       .  A
C1908      C1924   1.417       .  A
C1909      C1925   1.418       .  A
C1909      C1917   1.387       .  A
C1910      C1918   1.387       .  A
C1910      C1927   1.410       .  A
C1911      C1926   1.411       .  A
C1911      C1919   1.387       .  A
C1912      C1924   1.412       .  A
C1912      C1920   1.387       .  A
C1913      C1927   1.411       .  A
C1913      C1921   1.386       .  A
C1914      C1922   1.387       .  A
C1914      C1925   1.409       .  A
C1915      C1923   1.385       .  A
C1915      C1926   1.407       .  A
C1916      C1917   1.380       .  A
C1916      H1928   1.082       .  S
C1917      H1929   1.082       .  S
C1918      C1919   1.376       .  A
C1918      H1930   1.082       .  S
C1919      H1931   1.082       .  S
C1920      C1921   1.380       .  A
C1920      H1932   1.082       .  S
C1921      H1933   1.082       .  S
C1922      C1923   1.376       .  A
C1922      H1934   1.082       .  S
C1923      H1935   1.082       .  S
C1924      C2117   1.491       .  S
C1925      C2177   1.490       .  S
C1926      C2187   1.484       .  S
C1927      C2127   1.489       .  S
N1938      C1943   1.349       .  A
N1938      C1942   1.350       .  A
N1938      H1970   1.041       .  S
N1939      C1946   1.346       .  A
N1939      C1947   1.345       .  A
N1940      C1945   1.352       .  A
N1940      C1944   1.352       .  A
N1940      H1971   1.041       .  S
N1941      C1948   1.350       .  A
N1941      C1949   1.349       .  A
C1942      C1950   1.387       .  A
C1942      C1958   1.411       .  A
C1943      C1959   1.410       .  A
C1943      C1951   1.387       .  A
C1944      C1952   1.386       .  A
C1944      C1961   1.414       .  A
C1945      C1960   1.415       .  A
C1945      C1953   1.387       .  A
C1946      C1958   1.406       .  A
C1946      C1954   1.386       .  A
C1947      C1961   1.406       .  A
C1947      C1955   1.387       .  A
C1948      C1956   1.386       .  A
C1948      C1959   1.413       .  A
C1949      C1957   1.387       .  A
C1949      C1960   1.414       .  A
C1950      C1951   1.377       .  A
C1950      H1962   1.082       .  S
C1951      H1963   1.082       .  S
C1952      C1953   1.377       .  A
C1952      H1964   1.082       .  S
C1953      H1965   1.082       .  S
C1954      C1955   1.378       .  A
C1954      H1966   1.082       .  S
C1955      H1967   1.082       .  S
C1956      C1957   1.379       .  A
C1956      H1968   1.082       .  S
C1957      H1969   1.082       .  S
C1958      C2207   1.486       .  S
C1959      C2104   1.486       .  S
C1960      C2097   1.492       .  S
C1961      C2197   1.487       .  S
C1972      N1990   1.348       .  A
C1972      C2009   1.453       .  S
C1972      C2287   1.467       .  S
N1973      N1990   1.327       .  A
N1973      N1995   1.320       .  A
N1973     Co2010   2.080       .  S
C1974      N1999   1.345       .  A
C1974      H2019   1.080       .  S
C1974      C2012   1.475       .  S
H1975      C2016   1.081       .  S
C1976      N2000   1.339       .  A
C1976      H2005   1.081       .  S
C1976      C1980   1.461       .  S
Co1977     N1985   2.075       .  S
Co1977     N2797   2.090       .  S
Co1977    Cl2021   2.462       .  S
N1978      C2016   1.346       .  A
N1978      N1985   1.319       .  A
N1978     Co1979   2.110       .  S
Co1979     N1982   2.094       .  S
Co1979     N2803   2.107       .  S
Co1979     N2790   2.076       .  S
Co1979    Cl2021   2.441       .  S
C1980      N2018   1.353       .  A
C1980      C2114   1.488       .  S
N1981      N1988   1.318       .  A
N1981      N2011   1.325       .  A
N1982      N2000   1.321       .  A
N1982      N2018   1.325       .  A
N1983      C2012   1.355       .  A
N1983      N1993   1.327       .  A
H1984      C2009   1.080       .  S
N1985      N2006   1.323       .  A
N1986      N2004   1.322       .  A
N1986      N1991   1.322       .  A
N1986     Co2783   2.075   1_545  S
C1987      N1991   1.347       .  A
C1987      C2015   1.466       .  S
C1987      C2094   1.480       .  S
N1988      C2003   1.336       .  A
N1988     Co2010   2.079       .  S
C1989      N2017   1.331       .  A
C1989      H2023   1.076       .  S
C1989      C1992   1.449       .  S
C1992      N2013   1.346       .  A
C1992      C2277   1.460       .  S
N1993      N1999   1.317       .  A
N1993     Co2781   2.090   1_545  S
N1994      C2020   1.335       .  A
N1994      N1996   1.317       .  A
N1994     Co2814   2.068   1_545  S
N1995      C2009   1.335       .  A
N1996      N2024   1.328       .  A
H1997      C2020   1.082       .  S
H1998      C2015   1.082       .  S
N1999     Co2783   2.107   1_545  S
N2000     Co2014   2.083       .  S
N2001      N2013   1.325       .  A
N2001      N2017   1.319       .  A
N2001     Co2814   2.068   1_545  S
C2002      N2006   1.349       .  A
C2002      C2016   1.473       .  S
C2002      C2264   1.498       .  S
C2003      H2007   1.082       .  S
C2003      C2022   1.463       .  S
N2004      C2015   1.343       .  A
N2004     Co2818   2.104   1_545  S
C2008      N2024   1.358       .  A
C2008      C2020   1.455       .  S
C2008      C2107   1.479       .  S
Co2010     N2798   2.068       .  S
Co2010     N2805   2.068       .  S
N2011      C2022   1.354       .  A
C2012      C2254   1.515       .  S
Co2014     N2808   2.104       .  S
Co2014    Cl2021   2.457       .  S
C2022      C2124   1.490       .  S
N2025      C2030   1.350       .  A
N2025      C2029   1.349       .  A
N2025      H2057   1.041       .  S
N2026      C2033   1.352       .  A
N2026      C2034   1.351       .  A
N2027      C2032   1.360       .  A
N2027      C2031   1.361       .  A
N2027      H2058   1.042       .  S
N2028      C2035   1.353       .  A
N2028      C2036   1.351       .  A
C2029      C2037   1.387       .  A
C2029      C2045   1.408       .  A
C2030      C2046   1.409       .  A
C2030      C2038   1.387       .  A
C2031      C2039   1.388       .  A
C2031      C2048   1.433       .  A
C2032      C2047   1.431       .  A
C2032      C2040   1.387       .  A
C2033      C2045   1.414       .  A
C2033      C2041   1.385       .  A
C2034      C2048   1.418       .  A
C2034      C2042   1.388       .  A
C2035      C2043   1.384       .  A
C2035      C2046   1.415       .  A
C2036      C2044   1.389       .  A
C2036      C2047   1.419       .  A
C2037      C2038   1.376       .  A
C2037      H2049   1.082       .  S
C2038      H2050   1.082       .  S
C2039      C2040   1.387       .  A
C2039      H2051   1.082       .  S
C2040      H2052   1.082       .  S
C2041      C2042   1.379       .  A
C2041      H2053   1.082       .  S
C2042      H2054   1.082       .  S
C2043      C2044   1.379       .  A
C2043      H2055   1.082       .  S
C2044      H2056   1.082       .  S
C2045      C2137   1.488       .  S
C2046      C2144   1.493       .  S
C2047      C2237   1.516       .  S
C2048      C2244   1.519       .  S
N2059      C2064   1.352       .  A
N2059      C2063   1.351       .  A
N2059      H2091   1.034       .  S
N2060      C2067   1.352       .  A
N2060      C2068   1.353       .  A
N2061      C2066   1.354       .  A
N2061      C2065   1.355       .  A
N2061      H2092   1.025       .  S
N2062      C2069   1.351       .  A
N2062      C2070   1.350       .  A
C2063      C2071   1.387       .  A
C2063      C2079   1.412       .  A
C2064      C2080   1.411       .  A
C2064      C2072   1.386       .  A
C2065      C2073   1.388       .  A
C2065      C2082   1.423       .  A
C2066      C2081   1.420       .  A
C2066      C2074   1.387       .  A
C2067      C2079   1.416       .  A
C2067      C2075   1.386       .  A
C2068      C2082   1.420       .  A
C2068      C2076   1.388       .  A
C2069      C2077   1.384       .  A
C2069      C2080   1.410       .  A
C2070      C2078   1.389       .  A
C2070      C2081   1.415       .  A
C2071      C2072   1.376       .  A
C2071      H2083   1.082       .  S
C2072      H2084   1.082       .  S
C2073      C2074   1.379       .  A
C2073      H2085   1.082       .  S
C2074      H2086   1.082       .  S
C2075      C2076   1.368       .  A
C2075      H2087   1.082       .  S
C2076      H2088   1.082       .  S
C2077      C2078   1.368       .  A
C2077      H2089   1.082       .  S
C2078      H2090   1.082       .  S
C2079      C2157   1.490       .  S
C2080      C2164   1.488       .  S
C2081      C2217   1.486       .  S
C2082      C2227   1.496       .  S
C2093      C2094   1.415       .  A
C2093      C2098   1.407       .  A
C2093     Br2100   1.931       .  S
C2094      C2095   1.408       .  A
C2095      C2096   1.409       .  A
C2095     Br2102   1.930       .  S
C2096      C2097   1.413       .  A
C2096     Br2101   1.930       .  S
C2097      C2098   1.410       .  A
C2098     Br2099   1.934       .  S
C2103      C2104   1.406       .  A
C2103      C2108   1.405       .  A
C2103     Br2110   1.933       .  S
C2104      C2105   1.411       .  A
C2105      C2106   1.409       .  A
C2105     Br2112   1.929       .  S
C2106      C2107   1.408       .  A
C2106     Br2111   1.929       .  S
C2107      C2108   1.415       .  A
C2108     Br2109   1.926       .  S
C2113      C2114   1.412       .  A
C2113      C2118   1.409       .  A
C2113     Br2120   1.931       .  S
C2114      C2115   1.422       .  A
C2115      C2116   1.409       .  A
C2115     Br2122   1.935       .  S
C2116      C2117   1.407       .  A
C2116     Br2121   1.934       .  S
C2117      C2118   1.410       .  A
C2118     Br2119   1.930       .  S
C2123      C2124   1.420       .  A
C2123      C2128   1.409       .  A
C2123     Br2130   1.934       .  S
C2124      C2125   1.414       .  A
C2125      C2126   1.407       .  A
C2125     Br2132   1.933       .  S
C2126      C2127   1.407       .  A
C2126     Br2131   1.931       .  S
C2127      C2128   1.410       .  A
C2128     Br2129   1.935       .  S
C2133      C2134   1.412       .  A
C2133      C2138   1.405       .  A
C2133     Br2140   1.933       .  S
C2134      C2135   1.407       .  A
C2135      C2136   1.409       .  A
C2135     Br2142   1.926       .  S
C2136      C2137   1.410       .  A
C2136     Br2141   1.927       .  S
C2137      C2138   1.409       .  A
C2138     Br2139   1.931       .  S
C2143      C2144   1.412       .  A
C2143      C2148   1.411       .  A
C2143     Br2150   1.928       .  S
C2144      C2145   1.411       .  A
C2145      C2146   1.406       .  A
C2145     Br2152   1.933       .  S
C2146      C2147   1.413       .  A
C2146     Br2151   1.934       .  S
C2147      C2148   1.407       .  A
C2148     Br2149   1.927       .  S
C2153      C2154   1.415       .  A
C2153      C2158   1.411       .  A
C2153     Br2160   1.929       .  S
C2154      C2155   1.427       .  A
C2155      C2156   1.401       .  A
C2155     Br2162   1.941       .  S
C2156      C2157   1.404       .  A
C2156     Br2161   1.938       .  S
C2157      C2158   1.411       .  A
C2158     Br2159   1.931       .  S
C2163      C2164   1.405       .  A
C2163      C2168   1.410       .  A
C2163     Br2170   1.932       .  S
C2164      C2165   1.401       .  A
C2165      C2166   1.406       .  A
C2165     Br2172   1.937       .  S
C2166      C2167   1.432       .  A
C2166     Br2171   1.938       .  S
C2167      C2168   1.422       .  A
C2168     Br2169   1.927       .  S
C2173      C2174   1.412       .  A
C2173      C2178   1.405       .  A
C2173     Br2180   1.935       .  S
C2174      C2175   1.409       .  A
C2175      C2176   1.410       .  A
C2175     Br2182   1.927       .  S
C2176      C2177   1.411       .  A
C2176     Br2181   1.929       .  S
C2177      C2178   1.411       .  A
C2178     Br2179   1.933       .  S
C2183      C2184   1.416       .  A
C2183      C2188   1.405       .  A
C2183     Br2190   1.935       .  S
C2184      C2185   1.409       .  A
C2185      C2186   1.408       .  A
C2185     Br2192   1.929       .  S
C2186      C2187   1.409       .  A
C2186     Br2191   1.930       .  S
C2187      C2188   1.407       .  A
C2188     Br2189   1.934       .  S
C2193      C2194   1.425       .  A
C2193      C2198   1.404       .  A
C2193     Br2200   1.938       .  S
C2194      C2195   1.416       .  A
C2195      C2196   1.408       .  A
C2195     Br2202   1.931       .  S
C2196      C2197   1.410       .  A
C2196     Br2201   1.933       .  S
C2197      C2198   1.405       .  A
C2198     Br2199   1.937       .  S
C2203      C2204   1.415       .  A
C2203      C2208   1.409       .  A
C2203     Br2210   1.931       .  S
C2204      C2205   1.419       .  A
C2205      C2206   1.400       .  A
C2205     Br2212   1.938       .  S
C2206      C2207   1.407       .  A
C2206     Br2211   1.937       .  S
C2207      C2208   1.411       .  A
C2208     Br2209   1.931       .  S
C2213      C2214   1.414       .  A
C2213      C2218   1.400       .  A
C2213     Br2220   1.924       .  S
C2214      C2215   1.413       .  A
C2215      C2216   1.412       .  A
C2215     Br2222   1.928       .  S
C2216      C2217   1.410       .  A
C2216     Br2221   1.928       .  S
C2217      C2218   1.403       .  A
C2218     Br2219   1.934       .  S
C2223      C2224   1.412       .  A
C2223      C2228   1.404       .  A
C2223     Br2230   1.926       .  S
C2224      C2225   1.412       .  A
C2225      C2226   1.414       .  A
C2225     Br2232   1.926       .  S
C2226      C2227   1.413       .  A
C2226     Br2231   1.928       .  S
C2227      C2228   1.408       .  A
C2228     Br2229   1.934       .  S
C2233      C2234   1.405       .  A
C2233      C2238   1.413       .  A
C2233     Br2240   1.929       .  S
C2234      C2235   1.412       .  A
C2235      C2236   1.419       .  A
C2235     Br2242   1.923       .  S
C2236      C2237   1.417       .  A
C2236     Br2241   1.930       .  S
C2237      C2238   1.420       .  A
C2238     Br2239   1.930       .  S
C2243      C2244   1.416       .  A
C2243      C2248   1.417       .  A
C2243     Br2250   1.931       .  S
C2244      C2245   1.423       .  A
C2245      C2246   1.417       .  A
C2245     Br2252   1.931       .  S
C2246      C2247   1.407       .  A
C2246     Br2251   1.928       .  S
C2247      C2248   1.411       .  A
C2248     Br2249   1.921       .  S
C2253      C2254   1.425       .  A
C2253      C2258   1.417       .  A
C2253     Br2260   1.931       .  S
C2254      C2255   1.426       .  A
C2255      C2256   1.411       .  A
C2255     Br2262   1.920       .  S
C2256      C2257   1.403       .  A
C2256     Br2261   1.937       .  S
C2257      C2258   1.407       .  A
C2258     Br2259   1.931       .  S
C2263      C2264   1.420       .  A
C2263      C2268   1.407       .  A
C2263     Br2270   1.920       .  S
C2264      C2265   1.418       .  A
C2265      C2266   1.413       .  A
C2265     Br2272   1.930       .  S
C2266      C2267   1.409       .  A
C2266     Br2271   1.930       .  S
C2267      C2268   1.404       .  A
C2268     Br2269   1.936       .  S
C2273      C2274   1.408       .  A
C2273      C2278   1.401       .  A
C2273     Br2280   1.925       .  S
C2274      C2275   1.409       .  A
C2275      C2276   1.404       .  A
C2275     Br2282   1.928       .  S
C2276      C2277   1.407       .  A
C2276     Br2281   1.932       .  S
C2277      C2278   1.402       .  A
C2278     Br2279   1.928       .  S
C2283      C2284   1.413       .  A
C2283      C2288   1.407       .  A
C2283     Br2290   1.930       .  S
C2284      C2285   1.416       .  A
C2285      C2286   1.402       .  A
C2286      C2287   1.402       .  A
C2287      C2288   1.406       .  A
C2288     Br2289   1.926       .  S
C2293      C2294   1.414       .  A
C2293      C2298   1.414       .  A
C2293     Br2300   1.929       .  S
C2294      C2295   1.413       .  A
C2295      C2296   1.396       .  A
C2295     Br2302   1.937       .  S
C2296      C2297   1.409       .  A
C2296     Br2301   1.932       .  S
C2297      C2298   1.413       .  A
C2298     Br2299   1.929       .  S
C2303      C2304   1.410       .  A
C2303      C2308   1.406       .  A
C2303     Br2310   1.929       .  S
C2304      C2305   1.414       .  A
C2305      C2306   1.403       .  A
C2305     Br2312   1.931       .  S
C2306      C2307   1.408       .  A
C2306     Br2311   1.933       .  S
C2307      C2308   1.409       .  A
C2308     Br2309   1.930       .  S
C2313      C2314   1.414       .  A
C2313      C2318   1.414       .  A
C2313     Br2320   1.931       .  S
C2314      C2315   1.406       .  A
C2315      C2316   1.401       .  A
C2315     Br2322   1.938       .  S
C2316      C2317   1.424       .  A
C2316     Br2321   1.941       .  S
C2317      C2318   1.416       .  A
C2318     Br2319   1.929       .  S
C2323      C2324   1.409       .  A
C2323      C2328   1.403       .  A
C2323     Br2330   1.935       .  S
C2324      C2325   1.415       .  A
C2325      C2326   1.415       .  A
C2325     Br2332   1.931       .  S
C2326      C2327   1.417       .  A
C2326     Br2331   1.929       .  S
C2327      C2328   1.419       .  A
C2328     Br2329   1.936       .  S
C2333      C2334   1.411       .  A
C2333      C2338   1.405       .  A
C2333     Br2340   1.932       .  S
C2334      C2335   1.411       .  A
C2335      C2336   1.412       .  A
C2335     Br2342   1.928       .  S
C2336      C2337   1.409       .  A
C2336     Br2341   1.920       .  S
C2337      C2338   1.404       .  A
C2338     Br2339   1.920       .  S
C2343      C2344   1.415       .  A
C2343      C2348   1.409       .  A
C2343     Br2350   1.932       .  S
C2344      C2345   1.413       .  A
C2345      C2346   1.415       .  A
C2345     Br2352   1.930       .  S
C2346      C2347   1.412       .  A
C2346     Br2351   1.925       .  S
C2347      C2348   1.406       .  A
C2348     Br2349   1.925       .  S
C2353      C2354   1.415       .  A
C2353      C2358   1.411       .  A
C2353     Br2360   1.931       .  S
C2354      C2355   1.412       .  A
C2355      C2356   1.402       .  A
C2355     Br2362   1.914       .  S
C2356      C2357   1.405       .  A
C2356     Br2361   1.936       .  S
C2357      C2358   1.410       .  A
C2358     Br2359   1.931       .  S
C2363      C2364   1.405       .  A
C2363      C2368   1.403       .  A
C2363     Br2370   1.934       .  S
C2364      C2365   1.410       .  A
C2365      C2366   1.411       .  A
C2365     Br2372   1.929       .  S
C2366      C2367   1.412       .  A
C2366     Br2371   1.928       .  S
C2367      C2368   1.414       .  A
C2368     Br2369   1.919       .  S
C2373      C2374   1.413       .  A
C2373      C2378   1.414       .  A
C2373     Br2380   1.927       .  S
C2374      C2375   1.416       .  A
C2375      C2376   1.405       .  A
C2375     Br2382   1.928       .  S
C2376      C2377   1.401       .  A
C2376     Br2381   1.922       .  S
C2377      C2378   1.408       .  A
C2378     Br2379   1.922       .  S
C2383      C2384   1.412       .  A
C2383      C2388   1.406       .  A
C2383     Br2390   1.930       .  S
C2384      C2385   1.413       .  A
C2385      C2386   1.418       .  A
C2385     Br2392   1.926       .  S
C2386      C2387   1.412       .  A
C2386     Br2391   1.926       .  S
C2387      C2388   1.407       .  A
C2388     Br2389   1.925       .  S
C2393      C2394   1.414       .  A
C2393      C2398   1.404       .  A
C2393     Br2400   1.927       .  S
C2394      C2395   1.411       .  A
C2395      C2396   1.404       .  A
C2395     Br2402   1.926       .  S
C2396      C2397   1.403       .  A
C2396     Br2401   1.927       .  S
C2397      C2398   1.402       .  A
C2398     Br2399   1.931       .  S
C2403      C2404   1.413       .  A
C2403      C2408   1.404       .  A
C2403     Br2410   1.926       .  S
C2404      C2405   1.417       .  A
C2405      C2406   1.404       .  A
C2405     Br2412   1.928       .  S
C2406      C2407   1.401       .  A
C2406     Br2411   1.931       .  S
C2407      C2408   1.403       .  A
C2408     Br2409   1.928       .  S
N2413      C2418   1.354       .  A
N2413      C2417   1.351       .  A
N2413      H2445   1.041       .  S
N2414      C2421   1.354       .  A
N2414      C2422   1.353       .  A
N2415      C2420   1.353       .  A
N2415      C2419   1.351       .  A
N2415      H2446   1.041       .  S
N2416      C2423   1.344       .  A
N2416      C2424   1.344       .  A
C2417      C2425   1.386       .  A
C2417      C2433   1.414       .  A
C2418      C2434   1.419       .  A
C2418      C2426   1.388       .  A
C2419      C2427   1.387       .  A
C2419      C2436   1.414       .  A
C2420      C2435   1.416       .  A
C2420      C2428   1.388       .  A
C2421      C2433   1.420       .  A
C2421      C2429   1.386       .  A
C2422      C2436   1.420       .  A
C2422      C2430   1.386       .  A
C2423      C2431   1.387       .  A
C2423      C2434   1.406       .  A
C2424      C2432   1.386       .  A
C2424      C2435   1.404       .  A
C2425      C2426   1.379       .  A
C2425      H2437   1.082       .  S
C2426      H2438   1.082       .  S
C2427      C2428   1.378       .  A
C2427      H2439   1.082       .  S
C2428      H2440   1.082       .  S
C2429      C2430   1.384       .  A
C2429      H2441   1.082       .  S
C2430      H2442   1.082       .  S
C2431      C2432   1.377       .  A
C2431      H2443   1.082       .  S
C2432      H2444   1.082       .  S
C2433      C3188   1.501       .  S
C2434      C3208   1.491       .  S
C2435      C3198   1.487       .  S
C2436      C3178   1.500       .  S
N2447      C2452   1.353       .  A
N2447      C2451   1.352       .  A
N2447      H2479   1.041       .  S
N2448      C2455   1.353       .  A
N2448      C2456   1.352       .  A
N2449      C2454   1.352       .  A
N2449      C2453   1.351       .  A
N2449      H2480   1.041       .  S
N2450      C2457   1.348       .  A
N2450      C2458   1.349       .  A
C2451      C2459   1.387       .  A
C2451      C2467   1.414       .  A
C2452      C2468   1.414       .  A
C2452      C2460   1.387       .  A
C2453      C2461   1.387       .  A
C2453      C2470   1.410       .  A
C2454      C2469   1.412       .  A
C2454      C2462   1.388       .  A
C2455      C2467   1.418       .  A
C2455      C2463   1.386       .  A
C2456      C2470   1.416       .  A
C2456      C2464   1.385       .  A
C2457      C2465   1.387       .  A
C2457      C2468   1.411       .  A
C2458      C2466   1.386       .  A
C2458      C2469   1.411       .  A
C2459      C2460   1.376       .  A
C2459      H2471   1.082       .  S
C2460      H2472   1.082       .  S
C2461      C2462   1.373       .  A
C2461      H2473   1.082       .  S
C2462      H2474   1.082       .  S
C2463      C2464   1.382       .  A
C2463      H2475   1.082       .  S
C2464      H2476   1.082       .  S
C2465      C2466   1.378       .  A
C2465      H2477   1.082       .  S
C2466      H2478   1.082       .  S
C2467      C3148   1.501       .  S
C2468      C3168   1.488       .  S
C2469      C3161   1.486       .  S
C2470      C3138   1.492       .  S
C2481      N2499   1.356       .  A
C2481      C2518   1.454       .  S
C2481      C3171   1.487       .  S
N2482      N2499   1.330       .  A
N2482      N2504   1.322       .  A
C2483      N2508   1.339       .  A
C2483      H2528   1.081       .  S
C2483      C2521   1.452       .  S
H2484      C2525   1.081       .  S
C2485      N2509   1.334       .  A
C2485      H2514   1.081       .  S
C2485      C2489   1.452       .  S
Co2486     N2526   2.094       .  S
Co2486     N2502   2.096       .  S
Co2486    Cl2530   2.427       .  S
N2487      C2525   1.340       .  A
N2487      N2494   1.321       .  A
Co2488     N2508   2.068       .  S
Co2488     N2495   2.087       .  S
Co2488    Cl2530   2.478       .  S
C2489      N2527   1.353       .  A
C2489      C3108   1.476       .  S
N2490      N2497   1.316       .  A
N2490      N2520   1.317       .  A
N2491      N2509   1.316       .  A
N2491      N2527   1.326       .  A
N2492      C2521   1.351       .  A
N2492      N2502   1.323       .  A
H2493      C2518   1.082       .  S
N2494      N2515   1.323       .  A
N2495      N2513   1.315       .  A
N2495      N2500   1.329       .  A
C2496      N2500   1.355       .  A
C2496      C2524   1.452       .  S
C2496      C3098   1.483       .  S
N2497      C2512   1.350       .  A
C2498      N2526   1.339       .  A
C2498      H2532   1.081       .  S
C2498      C2501   1.464       .  S
C2501      N2522   1.349       .  A
C2501      C3158   1.486       .  S
N2502      N2508   1.321       .  A
N2503      C2529   1.353       .  A
N2503      N2505   1.315       .  A
N2503     Co2519   2.105       .  S
N2504      C2518   1.333       .  A
N2505      N2533   1.313       .  A
N2505     Co2523   2.053       .  S
H2506      C2529   1.081       .  S
H2507      C2524   1.080       .  S
N2510      N2522   1.325       .  A
N2510      N2526   1.322       .  A
N2510     Co2519   2.084       .  S
C2511      N2515   1.349       .  A
C2511      C2525   1.450       .  S
C2511      C3211   1.463       .  S
C2512      H2516   1.081       .  S
C2512      C2531   1.476       .  S
N2513      C2524   1.329       .  A
N2513     Co2523   2.060       .  S
C2517      N2533   1.339       .  A
C2517      C2529   1.481       .  S
C2517      C3121   1.493       .  S
Co2519    Cl2530   2.487       .  S
N2520      C2531   1.344       .  A
C2521      C3201   1.463       .  S
Co2523    Cl2530   2.402       .  S
C2531      C3131   1.496       .  S
N2534      C2539   1.355       .  A
N2534      C2538   1.352       .  A
N2534      H2566   1.041       .  S
N2535      C2542   1.348       .  A
N2535      C2543   1.350       .  A
N2536      C2541   1.351       .  A
N2536      C2540   1.350       .  A
N2536      H2567   1.040       .  S
N2537      C2544   1.343       .  A
N2537      C2545   1.344       .  A
C2538      C2546   1.388       .  A
C2538      C2554   1.416       .  A
C2539      C2555   1.418       .  A
C2539      C2547   1.386       .  A
C2540      C2548   1.387       .  A
C2540      C2557   1.413       .  A
C2541      C2556   1.414       .  A
C2541      C2549   1.387       .  A
C2542      C2554   1.409       .  A
C2542      C2550   1.386       .  A
C2543      C2557   1.412       .  A
C2543      C2551   1.387       .  A
C2544      C2552   1.387       .  A
C2544      C2555   1.404       .  A
C2545      C2553   1.386       .  A
C2545      C2556   1.403       .  A
C2546      C2547   1.374       .  A
C2546      H2558   1.081       .  S
C2547      H2559   1.082       .  S
C2548      C2549   1.380       .  A
C2548      H2560   1.082       .  S
C2549      H2561   1.082       .  S
C2550      C2551   1.375       .  A
C2550      H2562   1.082       .  S
C2551      H2563   1.082       .  S
C2552      C2553   1.376       .  A
C2552      H2564   1.082       .  S
C2553      H2565   1.082       .  S
C2554      C3111   1.484       .  S
C2555      C3088   1.490       .  S
C2556      C3078   1.478       .  S
C2557      C3101   1.491       .  S
N2568      C2573   1.354       .  A
N2568      C2572   1.355       .  A
N2568      H2600   1.041       .  S
N2569      C2576   1.352       .  A
N2569      C2577   1.351       .  A
N2570      C2575   1.355       .  A
N2570      C2574   1.352       .  A
N2570      H2601   1.041       .  S
N2571      C2578   1.348       .  A
N2571      C2579   1.350       .  A
C2572      C2580   1.388       .  A
C2572      C2588   1.419       .  A
C2573      C2589   1.419       .  A
C2573      C2581   1.387       .  A
C2574      C2582   1.388       .  A
C2574      C2591   1.417       .  A
C2575      C2590   1.417       .  A
C2575      C2583   1.386       .  A
C2576      C2588   1.415       .  A
C2576      C2584   1.386       .  A
C2577      C2591   1.415       .  A
C2577      C2585   1.387       .  A
C2578      C2586   1.387       .  A
C2578      C2589   1.411       .  A
C2579      C2587   1.386       .  A
C2579      C2590   1.411       .  A
C2580      C2581   1.376       .  A
C2580      H2592   1.082       .  S
C2581      H2593   1.082       .  S
C2582      C2583   1.376       .  A
C2582      H2594   1.082       .  S
C2583      H2595   1.082       .  S
C2584      C2585   1.379       .  A
C2584      H2596   1.082       .  S
C2585      H2597   1.082       .  S
C2586      C2587   1.378       .  A
C2586      H2598   1.082       .  S
C2587      H2599   1.082       .  S
C2588      C3061   1.499       .  S
C2589      C3118   1.495       .  S
C2590      C3128   1.501       .  S
C2591      C3071   1.492       .  S
C2602      N2620   1.345       .  A
C2602      C2639   1.467       .  S
C2602      C3181   1.480       .  S
N2603      N2620   1.322       .  A
N2603      N2625   1.323       .  A
C2604      N2629   1.350       .  A
C2604      H2649   1.081       .  S
C2604      C2642   1.473       .  S
H2605      C2646   1.082       .  S
C2606      N2630   1.354       .  A
C2606      H2635   1.081       .  S
C2606      C2610   1.475       .  S
Co2607     N2615   2.116   1_545  S
Co2607     N2623   2.061   1_545  S
N2608      C2646   1.334       .  A
N2608      N2615   1.322       .  A
Co2609     N2612   2.069       .  S
Co2609     N2616   2.114       .  S
Co2609    Cl2651   2.458   1_565  S
C2610      N2648   1.340       .  A
C2610      C3151   1.484       .  S
N2611      N2618   1.323       .  A
N2611      N2641   1.332       .  A
N2612      N2630   1.323       .  A
N2612      N2648   1.321       .  A
N2613      C2642   1.340       .  A
N2613      N2623   1.316       .  A
H2614      C2639   1.081       .  S
N2615      N2636   1.334       .  A
N2616      N2634   1.321       .  A
N2616      N2621   1.333       .  A
C2617      N2621   1.361       .  A
C2617      C2645   1.445       .  S
C2617      C3028   1.484       .  S
N2618      C2633   1.335       .  A
N2618     Co2640   2.085       .  S
C2619      N2647   1.339       .  A
C2619      H2653   1.081       .  S
C2619      C2622   1.451       .  S
C2622      N2643   1.361       .  A
C2622      C3038   1.495       .  S
N2623      N2629   1.322       .  A
N2624      C2650   1.355       .  A
N2624      N2626   1.323       .  A
N2624     Co2640   2.130       .  S
N2625      C2639   1.349       .  A
N2626      N2654   1.324       .  A
H2627      C2650   1.081       .  S
H2628      C2645   1.082       .  S
N2630     Co2644   2.123   1_565  S
N2631      N2643   1.336       .  A
N2631      N2647   1.323       .  A
C2632      N2636   1.360       .  A
C2632      C2646   1.447       .  S
C2632      C3191   1.486       .  S
C2633      H2637   1.082       .  S
C2633      C2652   1.448       .  S
N2634      C2645   1.330       .  A
N2634     Co2644   2.065   1_565  S
C2638      N2654   1.345       .  A
C2638      C2650   1.478       .  S
C2638      C3051   1.497       .  S
N2641      C2652   1.357       .  A
C2642      C3018   1.480       .  S
Co2644    Cl2651   2.462       .  S
C2652      C3141   1.480       .  S
C2655      N2673   1.360       .  A
C2655      C2692   1.441       .  S
C2655      C2988   1.476       .  S
N2656      N2673   1.332       .  A
N2656      N2678   1.320       .  A
C2657      N2682   1.346       .  A
C2657      H2702   1.081       .  S
C2657      C2695   1.475       .  S
H2658      C2699   1.081       .  S
C2659      N2683   1.327       .  A
C2659      H2688   1.080       .  S
C2659      C2663   1.438       .  S
Co2660     N2700   2.060       .  S
Co2660     N2676   2.062       .  S
Co2660    Cl2704   2.398       .  S
N2661      C2699   1.345       .  A
N2661      N2668   1.317       .  A
Co2662     N2682   2.098       .  S
Co2662     N2669   2.105   1_556  S
Co2662    Cl2704   2.496       .  S
C2663      N2701   1.361       .  A
C2663      C2951   1.476       .  S
N2664      N2671   1.315       .  A
N2664      N2694   1.316       .  A
N2665      N2683   1.319       .  A
N2665      N2701   1.334       .  A
N2666      C2695   1.342       .  A
N2666      N2676   1.316       .  A
H2667      C2692   1.081       .  S
N2668      N2689   1.316       .  A
N2669      N2687   1.318       .  A
N2669      N2674   1.332       .  A
C2670      N2674   1.358       .  A
C2670      C2698   1.442       .  S
C2670      C2938   1.474       .  S
N2671      C2686   1.348       .  A
C2672      N2700   1.331       .  A
C2672      H2706   1.081       .  S
C2672      C2675   1.447       .  S
C2675      N2696   1.356       .  A
C2675      C2978   1.477       .  S
N2676      N2682   1.318       .  A
N2677      C2703   1.352       .  A
N2677      N2679   1.316       .  A
N2677     Co2693   2.103       .  S
N2678      C2692   1.329       .  A
N2679      N2707   1.311       .  A
N2679     Co2697   2.051       .  S
H2680      C2703   1.081       .  S
H2681      C2698   1.081       .  S
N2684      N2696   1.331       .  A
N2684      N2700   1.319       .  A
N2684     Co2693   2.105   1_556  S
C2685      N2689   1.343       .  A
C2685      C2699   1.469       .  S
C2685      C3008   1.482       .  S
C2686      H2690   1.079       .  S
C2686      C2705   1.483       .  S
N2687      C2698   1.330       .  A
N2687     Co2697   2.055       .  S
C2691      N2707   1.336       .  A
C2691      C2703   1.481       .  S
C2691      C2958   1.490       .  S
Co2693    Cl2704   2.499   1_554  S
N2694      C2705   1.343       .  A
C2695      C2998   1.490       .  S
Co2697    Cl2704   2.392   1_554  S
C2705      C2971   1.505       .  S
N2708      C2713   1.354       .  A
N2708      C2712   1.353       .  A
N2708      H2740   1.041       .  S
N2709      C2716   1.348       .  A
N2709      C2717   1.350       .  A
N2710      C2715   1.351       .  A
N2710      C2714   1.349       .  A
N2710      H2741   1.041       .  S
N2711      C2718   1.347       .  A
N2711      C2719   1.348       .  A
C2712      C2720   1.387       .  A
C2712      C2728   1.417       .  A
C2713      C2729   1.418       .  A
C2713      C2721   1.387       .  A
C2714      C2722   1.387       .  A
C2714      C2731   1.410       .  A
C2715      C2730   1.411       .  A
C2715      C2723   1.387       .  A
C2716      C2728   1.412       .  A
C2716      C2724   1.387       .  A
C2717      C2731   1.411       .  A
C2717      C2725   1.386       .  A
C2718      C2726   1.387       .  A
C2718      C2729   1.409       .  A
C2719      C2727   1.385       .  A
C2719      C2730   1.407       .  A
C2720      C2721   1.379       .  A
C2720      H2732   1.082       .  S
C2721      H2733   1.082       .  S
C2722      C2723   1.376       .  A
C2722      H2734   1.082       .  S
C2723      H2735   1.082       .  S
C2724      C2725   1.380       .  A
C2724      H2736   1.082       .  S
C2725      H2737   1.082       .  S
C2726      C2727   1.376       .  A
C2726      H2738   1.082       .  S
C2727      H2739   1.082       .  S
C2728      C2921   1.491       .  S
C2729      C2981   1.490       .  S
C2730      C2991   1.485       .  S
C2731      C2931   1.489       .  S
N2742      C2747   1.349       .  A
N2742      C2746   1.351       .  A
N2742      H2774   1.041       .  S
N2743      C2750   1.346       .  A
N2743      C2751   1.345       .  A
N2744      C2749   1.352       .  A
N2744      C2748   1.352       .  A
N2744      H2775   1.041       .  S
N2745      C2752   1.350       .  A
N2745      C2753   1.349       .  A
C2746      C2754   1.387       .  A
C2746      C2762   1.412       .  A
C2747      C2763   1.410       .  A
C2747      C2755   1.387       .  A
C2748      C2756   1.386       .  A
C2748      C2765   1.414       .  A
C2749      C2764   1.415       .  A
C2749      C2757   1.387       .  A
C2750      C2762   1.406       .  A
C2750      C2758   1.386       .  A
C2751      C2765   1.406       .  A
C2751      C2759   1.387       .  A
C2752      C2760   1.386       .  A
C2752      C2763   1.413       .  A
C2753      C2761   1.387       .  A
C2753      C2764   1.414       .  A
C2754      C2755   1.377       .  A
C2754      H2766   1.082       .  S
C2755      H2767   1.082       .  S
C2756      C2757   1.377       .  A
C2756      H2768   1.082       .  S
C2757      H2769   1.082       .  S
C2758      C2759   1.378       .  A
C2758      H2770   1.082       .  S
C2759      H2771   1.082       .  S
C2760      C2761   1.380       .  A
C2760      H2772   1.082       .  S
C2761      H2773   1.082       .  S
C2762      C3011   1.486       .  S
C2763      C2908   1.486       .  S
C2764      C2901   1.492       .  S
C2765      C3001   1.487       .  S
C2776      N2794   1.348       .  A
C2776      C2813   1.453       .  S
C2776      C3091   1.467       .  S
N2777      N2794   1.327       .  A
N2777      N2799   1.320       .  A
N2777     Co2814   2.080       .  S
C2778      N2803   1.345       .  A
C2778      H2823   1.080       .  S
C2778      C2816   1.475       .  S
H2779      C2820   1.081       .  S
C2780      N2804   1.339       .  A
C2780      H2809   1.081       .  S
C2780      C2784   1.461       .  S
Co2781     N2789   2.075       .  S
Co2781    Cl2825   2.462       .  S
N2782      C2820   1.346       .  A
N2782      N2789   1.319       .  A
N2782     Co2783   2.111       .  S
Co2783     N2786   2.094       .  S
Co2783    Cl2825   2.441       .  S
C2784      N2822   1.353       .  A
C2784      C2918   1.488       .  S
N2785      N2792   1.318       .  A
N2785      N2815   1.325       .  A
N2786      N2804   1.321       .  A
N2786      N2822   1.325       .  A
N2787      C2816   1.355       .  A
N2787      N2797   1.327       .  A
H2788      C2813   1.080       .  S
N2789      N2810   1.323       .  A
N2790      N2808   1.322       .  A
N2790      N2795   1.322       .  A
C2791      N2795   1.347       .  A
C2791      C2819   1.466       .  S
C2791      C2898   1.480       .  S
N2792      C2807   1.336       .  A
N2792     Co2814   2.078       .  S
C2793      N2821   1.331       .  A
C2793      H2827   1.076       .  S
C2793      C2796   1.449       .  S
C2796      N2817   1.346       .  A
C2796      C3081   1.460       .  S
N2797      N2803   1.317       .  A
N2798      C2824   1.335       .  A
N2798      N2800   1.317       .  A
N2799      C2813   1.335       .  A
N2800      N2828   1.328       .  A
H2801      C2824   1.082       .  S
H2802      C2819   1.082       .  S
N2804     Co2818   2.083       .  S
N2805      N2817   1.325       .  A
N2805      N2821   1.319       .  A
C2806      N2810   1.349       .  A
C2806      C2820   1.473       .  S
C2806      C3068   1.498       .  S
C2807      H2811   1.082       .  S
C2807      C2826   1.464       .  S
N2808      C2819   1.343       .  A
C2812      N2828   1.358       .  A
C2812      C2824   1.455       .  S
C2812      C2911   1.479       .  S
N2815      C2826   1.354       .  A
C2816      C3058   1.515       .  S
Co2818    Cl2825   2.457       .  S
C2826      C2928   1.490       .  S
N2829      C2834   1.350       .  A
N2829      C2833   1.349       .  A
N2829      H2861   1.041       .  S
N2830      C2837   1.352       .  A
N2830      C2838   1.351       .  A
N2831      C2836   1.360       .  A
N2831      C2835   1.361       .  A
N2831      H2862   1.042       .  S
N2832      C2839   1.353       .  A
N2832      C2840   1.351       .  A
C2833      C2841   1.387       .  A
C2833      C2849   1.408       .  A
C2834      C2850   1.409       .  A
C2834      C2842   1.387       .  A
C2835      C2843   1.388       .  A
C2835      C2852   1.433       .  A
C2836      C2851   1.432       .  A
C2836      C2844   1.387       .  A
C2837      C2849   1.414       .  A
C2837      C2845   1.385       .  A
C2838      C2852   1.418       .  A
C2838      C2846   1.388       .  A
C2839      C2847   1.385       .  A
C2839      C2850   1.416       .  A
C2840      C2848   1.389       .  A
C2840      C2851   1.419       .  A
C2841      C2842   1.376       .  A
C2841      H2853   1.082       .  S
C2842      H2854   1.082       .  S
C2843      C2844   1.387       .  A
C2843      H2855   1.082       .  S
C2844      H2856   1.082       .  S
C2845      C2846   1.379       .  A
C2845      H2857   1.082       .  S
C2846      H2858   1.082       .  S
C2847      C2848   1.379       .  A
C2847      H2859   1.082       .  S
C2848      H2860   1.082       .  S
C2849      C2941   1.488       .  S
C2850      C2948   1.494       .  S
C2851      C3041   1.517       .  S
C2852      C3048   1.519       .  S
N2863      C2868   1.352       .  A
N2863      C2867   1.351       .  A
N2863      H2895   1.026       .  S
N2864      C2871   1.352       .  A
N2864      C2872   1.353       .  A
N2865      C2870   1.355       .  A
N2865      C2869   1.356       .  A
N2865      H2896   1.010       .  S
N2866      C2873   1.351       .  A
N2866      C2874   1.349       .  A
C2867      C2875   1.387       .  A
C2867      C2883   1.412       .  A
C2868      C2884   1.411       .  A
C2868      C2876   1.386       .  A
C2869      C2877   1.387       .  A
C2869      C2886   1.423       .  A
C2870      C2885   1.420       .  A
C2870      C2878   1.387       .  A
C2871      C2883   1.417       .  A
C2871      C2879   1.386       .  A
C2872      C2886   1.420       .  A
C2872      C2880   1.388       .  A
C2873      C2881   1.384       .  A
C2873      C2884   1.410       .  A
C2874      C2882   1.389       .  A
C2874      C2885   1.415       .  A
C2875      C2876   1.376       .  A
C2875      H2887   1.082       .  S
C2876      H2888   1.082       .  S
C2877      C2878   1.379       .  A
C2877      H2889   1.082       .  S
C2878      H2890   1.082       .  S
C2879      C2880   1.368       .  A
C2879      H2891   1.082       .  S
C2880      H2892   1.082       .  S
C2881      C2882   1.368       .  A
C2881      H2893   1.082       .  S
C2882      H2894   1.082       .  S
C2883      C2961   1.490       .  S
C2884      C2968   1.488       .  S
C2885      C3021   1.485       .  S
C2886      C3031   1.497       .  S
C2897      C2898   1.415       .  A
C2897      C2902   1.407       .  A
C2897     Br2904   1.931       .  S
C2898      C2899   1.408       .  A
C2899      C2900   1.409       .  A
C2899     Br2906   1.930       .  S
C2900      C2901   1.413       .  A
C2900     Br2905   1.930       .  S
C2901      C2902   1.410       .  A
C2902     Br2903   1.934       .  S
C2907      C2908   1.406       .  A
C2907      C2912   1.405       .  A
C2907     Br2914   1.933       .  S
C2908      C2909   1.411       .  A
C2909      C2910   1.409       .  A
C2909     Br2916   1.929       .  S
C2910      C2911   1.408       .  A
C2910     Br2915   1.929       .  S
C2911      C2912   1.415       .  A
C2912     Br2913   1.926       .  S
C2917      C2918   1.412       .  A
C2917      C2922   1.409       .  A
C2917     Br2924   1.931       .  S
C2918      C2919   1.422       .  A
C2919      C2920   1.409       .  A
C2919     Br2926   1.935       .  S
C2920      C2921   1.407       .  A
C2920     Br2925   1.934       .  S
C2921      C2922   1.410       .  A
C2922     Br2923   1.930       .  S
C2927      C2928   1.420       .  A
C2927      C2932   1.409       .  A
C2927     Br2934   1.934       .  S
C2928      C2929   1.414       .  A
C2929      C2930   1.407       .  A
C2929     Br2936   1.933       .  S
C2930      C2931   1.407       .  A
C2930     Br2935   1.931       .  S
C2931      C2932   1.410       .  A
C2932     Br2933   1.935       .  S
C2937      C2938   1.412       .  A
C2937      C2942   1.405       .  A
C2937     Br2944   1.933       .  S
C2938      C2939   1.407       .  A
C2939      C2940   1.409       .  A
C2939     Br2946   1.926       .  S
C2940      C2941   1.410       .  A
C2940     Br2945   1.927       .  S
C2941      C2942   1.409       .  A
C2942     Br2943   1.931       .  S
C2947      C2948   1.412       .  A
C2947      C2952   1.411       .  A
C2947     Br2954   1.927       .  S
C2948      C2949   1.412       .  A
C2949      C2950   1.407       .  A
C2949     Br2956   1.933       .  S
C2950      C2951   1.413       .  A
C2950     Br2955   1.934       .  S
C2951      C2952   1.407       .  A
C2952     Br2953   1.927       .  S
C2957      C2958   1.415       .  A
C2957      C2962   1.411       .  A
C2957     Br2964   1.929       .  S
C2958      C2959   1.427       .  A
C2959      C2960   1.401       .  A
C2959     Br2966   1.941       .  S
C2960      C2961   1.403       .  A
C2960     Br2965   1.938       .  S
C2961      C2962   1.411       .  A
C2962     Br2963   1.931       .  S
C2967      C2968   1.405       .  A
C2967      C2972   1.410       .  A
C2967     Br2974   1.932       .  S
C2968      C2969   1.401       .  A
C2969      C2970   1.406       .  A
C2969     Br2976   1.937       .  S
C2970      C2971   1.432       .  A
C2970     Br2975   1.938       .  S
C2971      C2972   1.422       .  A
C2972     Br2973   1.927       .  S
C2977      C2978   1.412       .  A
C2977      C2982   1.405       .  A
C2977     Br2984   1.935       .  S
C2978      C2979   1.409       .  A
C2979      C2980   1.410       .  A
C2979     Br2986   1.927       .  S
C2980      C2981   1.411       .  A
C2980     Br2985   1.929       .  S
C2981      C2982   1.411       .  A
C2982     Br2983   1.933       .  S
C2987      C2988   1.416       .  A
C2987      C2992   1.405       .  A
C2987     Br2994   1.935       .  S
C2988      C2989   1.409       .  A
C2989      C2990   1.408       .  A
C2989     Br2996   1.929       .  S
C2990      C2991   1.409       .  A
C2990     Br2995   1.930       .  S
C2991      C2992   1.407       .  A
C2992     Br2993   1.934       .  S
C2997      C2998   1.425       .  A
C2997      C3002   1.404       .  A
C2997     Br3004   1.938       .  S
C2998      C2999   1.416       .  A
C2999      C3000   1.408       .  A
C2999     Br3006   1.931       .  S
C3000      C3001   1.410       .  A
C3000     Br3005   1.933       .  S
C3001      C3002   1.405       .  A
C3002     Br3003   1.937       .  S
C3007      C3008   1.415       .  A
C3007      C3012   1.410       .  A
C3007     Br3014   1.931       .  S
C3008      C3009   1.419       .  A
C3009      C3010   1.400       .  A
C3009     Br3016   1.938       .  S
C3010      C3011   1.407       .  A
C3010     Br3015   1.937       .  S
C3011      C3012   1.411       .  A
C3012     Br3013   1.931       .  S
C3017      C3018   1.413       .  A
C3017      C3022   1.400       .  A
C3017     Br3024   1.924       .  S
C3018      C3019   1.413       .  A
C3019      C3020   1.412       .  A
C3019     Br3026   1.928       .  S
C3020      C3021   1.410       .  A
C3020     Br3025   1.928       .  S
C3021      C3022   1.403       .  A
C3022     Br3023   1.934       .  S
C3027      C3028   1.411       .  A
C3027      C3032   1.404       .  A
C3027     Br3034   1.926       .  S
C3028      C3029   1.412       .  A
C3029      C3030   1.414       .  A
C3029     Br3036   1.926       .  S
C3030      C3031   1.413       .  A
C3030     Br3035   1.928       .  S
C3031      C3032   1.409       .  A
C3032     Br3033   1.934       .  S
C3037      C3038   1.405       .  A
C3037      C3042   1.414       .  A
C3037     Br3044   1.929       .  S
C3038      C3039   1.412       .  A
C3039      C3040   1.419       .  A
C3039     Br3046   1.923       .  S
C3040      C3041   1.417       .  A
C3040     Br3045   1.930       .  S
C3041      C3042   1.420       .  A
C3042     Br3043   1.930       .  S
C3047      C3048   1.416       .  A
C3047      C3052   1.417       .  A
C3047     Br3054   1.930       .  S
C3048      C3049   1.423       .  A
C3049      C3050   1.417       .  A
C3049     Br3056   1.932       .  S
C3050      C3051   1.407       .  A
C3050     Br3055   1.928       .  S
C3051      C3052   1.411       .  A
C3052     Br3053   1.921       .  S
C3057      C3058   1.425       .  A
C3057      C3062   1.417       .  A
C3057     Br3064   1.931       .  S
C3058      C3059   1.426       .  A
C3059      C3060   1.411       .  A
C3059     Br3066   1.920       .  S
C3060      C3061   1.403       .  A
C3060     Br3065   1.937       .  S
C3061      C3062   1.407       .  A
C3062     Br3063   1.931       .  S
C3067      C3068   1.420       .  A
C3067      C3072   1.407       .  A
C3067     Br3074   1.920       .  S
C3068      C3069   1.418       .  A
C3069      C3070   1.413       .  A
C3069     Br3076   1.930       .  S
C3070      C3071   1.409       .  A
C3070     Br3075   1.930       .  S
C3071      C3072   1.404       .  A
C3072     Br3073   1.936       .  S
C3077      C3078   1.408       .  A
C3077      C3082   1.401       .  A
C3077     Br3084   1.925       .  S
C3078      C3079   1.409       .  A
C3079      C3080   1.404       .  A
C3079     Br3086   1.928       .  S
C3080      C3081   1.407       .  A
C3080     Br3085   1.932       .  S
C3081      C3082   1.402       .  A
C3082     Br3083   1.928       .  S
C3087      C3088   1.413       .  A
C3087      C3092   1.407       .  A
C3087     Br3094   1.930       .  S
C3088      C3089   1.416       .  A
C3089      C3090   1.402       .  A
C3090      C3091   1.402       .  A
C3091      C3092   1.406       .  A
C3092     Br3093   1.926       .  S
C3097      C3098   1.414       .  A
C3097      C3102   1.414       .  A
C3097     Br3104   1.929       .  S
C3098      C3099   1.413       .  A
C3099      C3100   1.396       .  A
C3099     Br3106   1.937       .  S
C3100      C3101   1.409       .  A
C3100     Br3105   1.932       .  S
C3101      C3102   1.413       .  A
C3102     Br3103   1.929       .  S
C3107      C3108   1.410       .  A
C3107      C3112   1.406       .  A
C3107     Br3114   1.929       .  S
C3108      C3109   1.414       .  A
C3109      C3110   1.403       .  A
C3109     Br3116   1.931       .  S
C3110      C3111   1.408       .  A
C3110     Br3115   1.933       .  S
C3111      C3112   1.409       .  A
C3112     Br3113   1.930       .  S
C3117      C3118   1.414       .  A
C3117      C3122   1.414       .  A
C3117     Br3124   1.931       .  S
C3118      C3119   1.406       .  A
C3119      C3120   1.401       .  A
C3119     Br3126   1.938       .  S
C3120      C3121   1.424       .  A
C3120     Br3125   1.941       .  S
C3121      C3122   1.416       .  A
C3122     Br3123   1.929       .  S
C3127      C3128   1.409       .  A
C3127      C3132   1.403       .  A
C3127     Br3134   1.935       .  S
C3128      C3129   1.415       .  A
C3129      C3130   1.415       .  A
C3129     Br3136   1.931       .  S
C3130      C3131   1.417       .  A
C3130     Br3135   1.929       .  S
C3131      C3132   1.419       .  A
C3132     Br3133   1.936       .  S
C3137      C3138   1.411       .  A
C3137      C3142   1.405       .  A
C3137     Br3144   1.932       .  S
C3138      C3139   1.411       .  A
C3139      C3140   1.412       .  A
C3139     Br3146   1.928       .  S
C3140      C3141   1.409       .  A
C3140     Br3145   1.920       .  S
C3141      C3142   1.404       .  A
C3142     Br3143   1.920       .  S
C3147      C3148   1.415       .  A
C3147      C3152   1.409       .  A
C3147     Br3154   1.932       .  S
C3148      C3149   1.413       .  A
C3149      C3150   1.414       .  A
C3149     Br3156   1.930       .  S
C3150      C3151   1.412       .  A
C3150     Br3155   1.925       .  S
C3151      C3152   1.406       .  A
C3152     Br3153   1.925       .  S
C3157      C3158   1.415       .  A
C3157      C3162   1.411       .  A
C3157     Br3164   1.931       .  S
C3158      C3159   1.412       .  A
C3159      C3160   1.402       .  A
C3159     Br3166   1.914       .  S
C3160      C3161   1.405       .  A
C3160     Br3165   1.936       .  S
C3161      C3162   1.411       .  A
C3162     Br3163   1.931       .  S
C3167      C3168   1.405       .  A
C3167      C3172   1.403       .  A
C3167     Br3174   1.934       .  S
C3168      C3169   1.410       .  A
C3169      C3170   1.412       .  A
C3169     Br3176   1.929       .  S
C3170      C3171   1.412       .  A
C3170     Br3175   1.928       .  S
C3171      C3172   1.414       .  A
C3172     Br3173   1.919       .  S
C3177      C3178   1.413       .  A
C3177      C3182   1.414       .  A
C3177     Br3184   1.927       .  S
C3178      C3179   1.416       .  A
C3179      C3180   1.405       .  A
C3179     Br3186   1.928       .  S
C3180      C3181   1.401       .  A
C3180     Br3185   1.922       .  S
C3181      C3182   1.408       .  A
C3182     Br3183   1.922       .  S
C3187      C3188   1.412       .  A
C3187      C3192   1.406       .  A
C3187     Br3194   1.930       .  S
C3188      C3189   1.413       .  A
C3189      C3190   1.418       .  A
C3189     Br3196   1.926       .  S
C3190      C3191   1.412       .  A
C3190     Br3195   1.926       .  S
C3191      C3192   1.406       .  A
C3192     Br3193   1.925       .  S
C3197      C3198   1.414       .  A
C3197      C3202   1.404       .  A
C3197     Br3204   1.927       .  S
C3198      C3199   1.411       .  A
C3199      C3200   1.404       .  A
C3199     Br3206   1.926       .  S
C3200      C3201   1.403       .  A
C3200     Br3205   1.927       .  S
C3201      C3202   1.402       .  A
C3202     Br3203   1.931       .  S
C3207      C3208   1.413       .  A
C3207      C3212   1.404       .  A
C3207     Br3214   1.926       .  S
C3208      C3209   1.417       .  A
C3209      C3210   1.404       .  A
C3209     Br3216   1.928       .  S
C3210      C3211   1.401       .  A
C3210     Br3215   1.931       .  S
C3211      C3212   1.403       .  A
C3212     Br3213   1.928       .  S
