geometry optimzed in LAMMPS
_audit_creation_date              2020-11-30 
_audit_creation_method            'lammps2cif' 
_symmetry_space_group_name_H-M    'P1' 
_symmetry_Int_Tables_number       1 
_symmetry_cell_setting            triclinic 
loop_ 
_symmetry_equiv_pos_as_xyz 
  x,y,z 
_cell_length_a                    74.03946804923294 
_cell_length_b                    74.21878644099658 
_cell_length_c                    74.11291467557864 
_cell_angle_alpha                 89.22683164250692 
_cell_angle_beta                  89.20938472787108 
_cell_angle_gamma                 90.94801741258226 
loop_ 
_atom_site_label 
_atom_site_type_symbol 
_atom_site_fract_x 
_atom_site_fract_y 
_atom_site_fract_z 
_atom_site_charge 
C1          C  0.67420917  0.66858560  0.65435367     0.03450
C2          C  0.66045538  0.67093866  0.66734707    -0.12700
C3          C  0.65924923  0.65995888  0.68288551     0.00950
C4          C  0.67192234  0.64639134  0.68540625    -0.11230
C5          C  0.68565874  0.64368128  0.67249379     0.03440
C6          C  0.68682991  0.65486211  0.65700756    -0.10650
H7          H  0.65050398  0.68128452  0.66531396     0.09040
H8          H  0.67084409  0.63763553  0.69721084     0.06570
H9          H  0.69737917  0.65275786  0.64701775     0.06410
C10         C  0.30665184  0.29677532  0.35140242     0.03450
C11         C  0.32223160  0.28620324  0.35012311    -0.12700
C12         C  0.33496930  0.28928878  0.33615141     0.00950
C13         C  0.33194053  0.30288477  0.32328347    -0.11230
C14         C  0.31648150  0.31346232  0.32438028     0.03440
C15         C  0.30385704  0.31039056  0.33844395    -0.10650
H16         H  0.32462998  0.27583153  0.36019958     0.09040
H17         H  0.34176863  0.30544048  0.31253584     0.06570
H18         H  0.29211256  0.31885460  0.33951694     0.06410
C19         C  0.65057321  0.28547793  0.68631854     0.03450
C20         C  0.65186462  0.30121751  0.69665895    -0.12700
C21         C  0.66589955  0.31389358  0.69343681     0.00950
C22         C  0.67880213  0.31062727  0.67985686    -0.11230
C23         C  0.67766677  0.29499374  0.66947343     0.03440
C24         C  0.66354686  0.28246410  0.67275050    -0.10650
H25         H  0.64175414  0.30376428  0.70698292     0.09040
H26         H  0.68959661  0.32037964  0.67717258     0.06570
H27         H  0.66245318  0.27057761  0.66447406     0.06410
C28         C  0.30701607  0.27583500  0.67859935     0.03450
C29         C  0.32109384  0.27398352  0.69094014    -0.12700
C30         C  0.32298958  0.28607428  0.70525247     0.00950
C31         C  0.31048925  0.29993209  0.70728464    -0.11230
C32         C  0.29633027  0.30195953  0.69500430     0.03440
C33         C  0.29463454  0.28982631  0.68072866    -0.10650
H34         H  0.33093498  0.26349887  0.68904793     0.09040
H35         H  0.31215512  0.30953234  0.71805072     0.06570
H36         H  0.28404136  0.29160668  0.67094632     0.06410
C37         C  0.31438796  0.62954160  0.69601679     0.03450
C38         C  0.32806677  0.64241306  0.69914361    -0.12700
C39         C  0.33121234  0.65671800  0.68686553     0.00950
C40         C  0.32064968  0.65814003  0.67139250    -0.11230
C41         C  0.30699186  0.64535763  0.66802037     0.03440
C42         C  0.30385493  0.63111061  0.68041492    -0.10650
H43         H  0.33647316  0.64113943  0.71093454     0.09040
H44         H  0.32323115  0.66910680  0.66184510     0.06570
H45         H  0.29341932  0.62111518  0.67778692     0.06410
C46         C  0.68860668  0.32840366  0.32557432     0.03450
C47         C  0.69086114  0.31569574  0.33960104    -0.12700
C48         C  0.68002463  0.30002625  0.34086789     0.00950
C49         C  0.66662735  0.29715582  0.32799301    -0.11230
C50         C  0.66400964  0.30978313  0.31398601     0.03440
C51         C  0.67509911  0.32534830  0.31275638    -0.10650
H52         H  0.70109145  0.31800084  0.34965312     0.09040
H53         H  0.65797418  0.28525638  0.32906161     0.06570
H54         H  0.67308174  0.33510045  0.30199336     0.06410
C55         C  0.31829962  0.64030695  0.32256932     0.03450
C56         C  0.31575605  0.65278896  0.33636618    -0.12700
C57         C  0.32845904  0.66678897  0.33898090     0.00950
C58         C  0.34368083  0.66841621  0.32746992    -0.11230
C59         C  0.34637691  0.65598609  0.31358240     0.03440
C60         C  0.33366301  0.64192894  0.31135436    -0.10650
H61         H  0.30407704  0.65141365  0.34528656     0.09040
H62         H  0.35346403  0.67919974  0.32945472     0.06570
H63         H  0.33571389  0.63211777  0.30086544     0.06410
N64         N  0.55140290  0.94129127  0.29323501    -0.26970
N65         N  0.56004149  0.95629086  0.29763515    -0.34830
C66         C  0.54873305  0.97016818  0.29665000     0.01370
C67         C  0.53196286  0.96383327  0.29138276     0.07400
C68         C  0.53419003  0.94536680  0.28930586    -0.05700
H69         H  0.55254731  0.98388992  0.29976268     0.08060
H70         H  0.52401342  0.93548758  0.28574048     0.09260
Cu71       Cu  0.58627219  0.95794217  0.30644719     0.44170
Cu72       Cu  0.56373755  0.91608641  0.29328144     0.41990
Cu73       Cu  0.60921732  0.91715220  0.31203634     0.43880
N74         N  0.61069253  0.95643697  0.31928716    -0.34350
N75         N  0.61876936  0.94098547  0.32224628    -0.28610
C76         C  0.63353589  0.94388734  0.33218244    -0.04710
C77         C  0.63485410  0.96213562  0.33539186     0.07510
C78         C  0.62022744  0.96973584  0.32699112     0.01020
H79         H  0.64269386  0.93354197  0.33653892     0.08950
H80         H  0.61651020  0.98377186  0.32693056     0.08030
N81         N  0.59786641  0.89513171  0.29978990    -0.35800
N82         N  0.58119181  0.89415378  0.29362336    -0.27980
C83         C  0.57824944  0.87739843  0.28736554    -0.03220
C84         C  0.59395110  0.86771010  0.28945481     0.05390
C85         C  0.60605912  0.87935404  0.29730389     0.03480
H86         H  0.56573248  0.87268517  0.28157183     0.08590
H87         H  0.61970169  0.87645465  0.30134837     0.07420
N88         N  0.70769697  0.03346936  0.46321585    -0.26970
N89         N  0.70986530  0.01800424  0.45487024    -0.34830
C90         C  0.70993067  0.00448946  0.46700868     0.01370
C91         C  0.70761593  0.01148168  0.48404011     0.07400
C92         C  0.70630492  0.03001459  0.48112829    -0.05700
H93         H  0.71042265  0.99041874  0.46346188     0.08060
H94         H  0.70407968  0.04021816  0.49114312     0.09260
Cu95       Cu  0.70920626  0.01422405  0.42748383     0.44170
Cu96       Cu  0.70518860  0.05814462  0.44928596     0.41990
Cu97       Cu  0.69977750  0.05180402  0.40077362     0.43880
N98         N  0.70042098  0.01179997  0.40145593    -0.34350
N99         N  0.69663932  0.02603681  0.39149861    -0.28610
C100        C  0.68787018  0.02073224  0.37673364    -0.04710
C101        C  0.68594959  0.00212761  0.37742900     0.07510
C102        C  0.69416213  0.99693705  0.39333870     0.01300
H103        H  0.68176837  0.02993125  0.36726902     0.08950
H104        H  0.69433314  0.98357444  0.39932702     0.08030
N105        N  0.70051372  0.07650848  0.41288664    -0.35800
N106        N  0.70237427  0.07924257  0.43036261    -0.27980
C107        C  0.70180908  0.09714355  0.43320016    -0.03220
C108        C  0.69930204  0.10593793  0.41672430     0.05390
C109        C  0.69865335  0.09233278  0.40422665     0.03480
H110        H  0.70282962  0.10327547  0.44631046     0.08590
H111        H  0.69713598  0.09369713  0.38979217     0.07420
N112        N  0.28187290  0.93113131  0.44808879    -0.26970
N113        N  0.28267219  0.94695945  0.43966139    -0.34830
C114        C  0.28002035  0.96008428  0.45165856     0.01370
C115        C  0.27751755  0.95234626  0.46861451     0.07400
C116        C  0.27868914  0.93389569  0.46578233    -0.05700
H117        H  0.28075790  0.97431603  0.44833434     0.08060
H118        H  0.27757517  0.92320464  0.47580150     0.09260
Cu119      Cu  0.28930175  0.95099141  0.41271071     0.44170
Cu120      Cu  0.28646362  0.90650017  0.43538458     0.41990
Cu121      Cu  0.29851035  0.91143397  0.38820314     0.43880
N122        N  0.29967906  0.95164955  0.38669059    -0.34350
N123        N  0.30305851  0.93680915  0.37774010    -0.28610
C124        C  0.31189000  0.94106786  0.36232537    -0.04710
C125        C  0.31429789  0.95955702  0.36153114     0.07510
C126        C  0.30622603  0.96588878  0.37712749     0.01300
H127        H  0.31688883  0.93130181  0.35286902     0.08950
H128        H  0.30630233  0.97963511  0.38180145     0.08030
N129        N  0.29723561  0.88704746  0.40148178    -0.35800
N130        N  0.29290795  0.88483755  0.41873127    -0.27980
C131        C  0.29404682  0.86716959  0.42296141    -0.03220
C132        C  0.29954297  0.85798514  0.40763269     0.05390
C133        C  0.30132123  0.87110466  0.39431481     0.03480
H134        H  0.29143382  0.86148837  0.43627859     0.08590
H135        H  0.30516172  0.86931010  0.38033764     0.07420
N136        N  0.44794916  0.02927562  0.28677655    -0.26970
N137        N  0.43870074  0.01401612  0.28499251    -0.34830
C138        C  0.45023597  0.00030161  0.28371231     0.01370
C139        C  0.46767251  0.00708421  0.28491455     0.07400
C140        C  0.46569636  0.02556523  0.28672871    -0.05700
H141        H  0.44613464  0.98626328  0.28316376     0.08060
H142        H  0.47629482  0.03557584  0.28838313     0.09260
Cu143      Cu  0.41099119  0.01135905  0.28774568     0.44170
Cu144      Cu  0.43603357  0.05423048  0.29111096     0.41990
Cu145      Cu  0.38817560  0.05070668  0.30109811     0.43880
N146        N  0.38499344  0.01078736  0.29816933    -0.34350
N147        N  0.37678749  0.02543110  0.30354585    -0.28610
C148        C  0.36172157  0.02074595  0.31282217    -0.04710
C149        C  0.36025568  0.00210170  0.31335150     0.07510
C150        C  0.37528967  0.99628722  0.30377269     0.01300
H151        H  0.35348905  0.03028296  0.31993368     0.08950
H152        H  0.37963176  0.98258177  0.30204076     0.08030
N153        N  0.40235325  0.07465473  0.30032270    -0.35800
N154        N  0.41984275  0.07631615  0.29679762    -0.27980
C155        C  0.42466895  0.09382186  0.29822305    -0.03220
C156        C  0.40941544  0.10352043  0.30290683     0.05390
C157        C  0.39559074  0.09082878  0.30410025     0.03480
H158        H  0.43835687  0.09893379  0.29655845     0.08590
H159        H  0.38158531  0.09307795  0.30759182     0.07420
N160        N  0.52726129  0.02141533  0.73697402    -0.26970
N161        N  0.53642579  0.00646625  0.73925346    -0.34830
C162        C  0.52499185  0.99255171  0.74215632     0.01370
C163        C  0.50743085  0.99865540  0.74156388     0.07400
C164        C  0.50945867  0.01719912  0.73829398    -0.05700
H165        H  0.52942316  0.97887737  0.74378880     0.08060
H166        H  0.49894069  0.02687011  0.73626126     0.09260
Cu167      Cu  0.56372436  0.00385368  0.73530401     0.44170
Cu168      Cu  0.54015523  0.04637868  0.73116335     0.41990
Cu169      Cu  0.58975062  0.04265018  0.72742032     0.43880
N170        N  0.58962599  0.00273702  0.72525028    -0.34350
N171        N  0.59964686  0.01736365  0.72259985    -0.28610
C172        C  0.61450024  0.01310872  0.71310948    -0.04710
C173        C  0.61372189  0.99480568  0.70932772     0.07510
C174        C  0.59765575  0.98873375  0.71738877     0.01300
H175        H  0.62427800  0.02299742  0.70812124     0.08950
H176        H  0.59122915  0.97565071  0.71620300     0.08030
N177        N  0.57604066  0.06656652  0.72600810    -0.35800
N178        N  0.55826134  0.06820126  0.72643725    -0.27980
C179        C  0.55439791  0.08558716  0.72284404    -0.03220
C180        C  0.57051581  0.09525236  0.72020465     0.05390
C181        C  0.58386178  0.08266234  0.72231631     0.03480
H182        H  0.54086405  0.09075315  0.72190149     0.08590
H183        H  0.59823554  0.08475059  0.72025596     0.07420
N184        N  0.68675097  0.94179431  0.56435705    -0.26970
N185        N  0.68435326  0.95634600  0.57410791    -0.34830
C186        C  0.68800648  0.97107990  0.56393712     0.01370
C187        C  0.69301785  0.96571246  0.54680636     0.07400
C188        C  0.69202214  0.94696751  0.54757838    -0.05700
H189        H  0.68704974  0.98471683  0.56876956     0.08060
H190        H  0.69445675  0.93771738  0.53671174     0.09260
Cu191      Cu  0.67569862  0.95599477  0.60060581     0.44170
Cu192      Cu  0.68232395  0.91574554  0.57465799     0.41990
Cu193      Cu  0.66997057  0.91352424  0.62285418     0.43880
N194        N  0.66631203  0.95325066  0.62676578    -0.34350
N195        N  0.66438563  0.93757206  0.63520565    -0.28610
C196        C  0.65709707  0.94020437  0.65164462    -0.04710
C197        C  0.65430959  0.95851925  0.65365483     0.07510
C198        C  0.66028305  0.96631188  0.63749900     0.01300
H199        H  0.65367624  0.92948562  0.66117806     0.08950
H200        H  0.65952819  0.98028180  0.63333465     0.08030
N201        N  0.67285562  0.89134097  0.60666024    -0.35800
N202        N  0.67686115  0.89194280  0.58920978    -0.27980
C203        C  0.67631274  0.87503702  0.58284522    -0.03220
C204        C  0.67173038  0.86329812  0.59698559     0.05390
C205        C  0.66975966  0.87416000  0.61185083     0.03480
H206        H  0.67906762  0.87161606  0.56895533     0.08590
H207        H  0.66573877  0.86998505  0.62538001     0.07420
N208        N  0.28184503  0.06154052  0.58542800    -0.26970
N209        N  0.28218516  0.05961928  0.60319489    -0.34830
C210        C  0.28440954  0.07579428  0.61078679     0.01370
C211        C  0.28561657  0.08862841  0.59724845     0.07400
C212        C  0.28410338  0.07921247  0.58127579    -0.05700
H213        H  0.28603998  0.07792458  0.62508750     0.08060
H214        H  0.28506048  0.08472391  0.56770406     0.09260
Cu215      Cu  0.28263528  0.03534945  0.61681358     0.44170
Cu216      Cu  0.27915216  0.03952902  0.56809800     0.41990
Cu217      Cu  0.27894903  0.99553463  0.59183818     0.43880
N218        N  0.28789690  0.01045336  0.62776851    -0.34350
N219        N  0.28634091  0.99541660  0.61859454    -0.28610
C220        C  0.29265986  0.98170468  0.62859238    -0.04710
C221        C  0.29871548  0.98860596  0.64472907     0.07510
C222        C  0.29539693  0.00686371  0.64376299     0.01300
H223        H  0.29399625  0.96803303  0.62393579     0.08950
H224        H  0.29889717  0.01695096  0.65357072     0.08030
N225        N  0.27573079  0.99891532  0.56436598    -0.35800
N226        N  0.27612530  0.01450161  0.55548098    -0.27980
C227        C  0.27506162  0.01116134  0.53766586    -0.03220
C228        C  0.27400652  0.99259093  0.53528410     0.05390
C229        C  0.27442755  0.98540576  0.55259209     0.03480
H230        H  0.27580767  0.02149485  0.52725082     0.08590
H231        H  0.27423184  0.97130266  0.55646065     0.07420
N232        N  0.42417757  0.92898424  0.73529096    -0.26970
N233        N  0.41449037  0.94375836  0.73519816    -0.34830
C234        C  0.42532743  0.95808775  0.73801051     0.01370
C235        C  0.44293272  0.95230134  0.73997829     0.07400
C236        C  0.44154847  0.93361181  0.73821533    -0.05700
H237        H  0.42064761  0.97178293  0.73777729     0.08060
H238        H  0.45224423  0.92395004  0.73836094     0.09260
Cu239      Cu  0.38755057  0.94471275  0.72858614     0.44170
Cu240      Cu  0.41342923  0.90337985  0.72988919     0.41990
Cu241      Cu  0.36617676  0.90339125  0.71695931     0.43880
N242        N  0.36307232  0.94341748  0.71568810    -0.34350
N243        N  0.35535995  0.92808495  0.71099595    -0.28610
C244        C  0.34151338  0.93153493  0.70003758    -0.04710
C245        C  0.34035459  0.95006836  0.69769517     0.07510
C246        C  0.35426770  0.95710755  0.70798397     0.01300
H247        H  0.33394100  0.92116323  0.69322586     0.08950
H248        H  0.35850491  0.97105811  0.70896903     0.08030
N249        N  0.38106017  0.88039055  0.71979273    -0.35800
N250        N  0.39842182  0.88016811  0.72373189    -0.27980
C251        C  0.40419423  0.86310267  0.72244297    -0.03220
C252        C  0.38970682  0.85216594  0.71754612     0.05390
C253        C  0.37529106  0.86361761  0.71611539     0.03480
H254        H  0.41794721  0.85903092  0.72468507     0.08590
H255        H  0.36178588  0.86019274  0.71177997     0.07420
N256        N  0.43436682  0.70741515  0.69008495    -0.26970
N257        N  0.42890335  0.69041156  0.69097288    -0.34830
C258        C  0.44348471  0.67989749  0.69251763     0.01370
C259        C  0.45869084  0.69103045  0.69283916     0.07400
C260        C  0.45238060  0.70833539  0.69125363    -0.05700
H261        H  0.44297522  0.66542306  0.69445187     0.08060
H262        H  0.46021358  0.72075071  0.69175844     0.09260
Cu263      Cu  0.40160729  0.68362961  0.69211110     0.44170
Cu264      Cu  0.41723197  0.72872625  0.68982816     0.41990
Cu265      Cu  0.36961843  0.72232053  0.69191041     0.43880
N266        N  0.37360708  0.68140573  0.69187580    -0.34350
N267        N  0.36227637  0.69502124  0.69082083    -0.28610
C268        C  0.34537638  0.68831034  0.68918537    -0.04710
C269        C  0.34611220  0.66970257  0.68964045     0.07510
C270        C  0.36415885  0.66579284  0.69136938     0.01300
H271        H  0.33344141  0.69637911  0.68770778     0.08950
H272        H  0.37009090  0.65256972  0.69143456     0.08030
N273        N  0.38206460  0.74762204  0.69445424    -0.35800
N274        N  0.39979212  0.74947608  0.69343675    -0.27980
C275        C  0.40456014  0.76664015  0.69634264    -0.03220
C276        C  0.38911654  0.77643625  0.69937521     0.05390
C277        C  0.37499179  0.76385921  0.69803781     0.03480
H278        H  0.41842347  0.77139026  0.69683597     0.08590
H279        H  0.36069685  0.76618965  0.69962663     0.07420
N280        N  0.68463136  0.21036862  0.41383053    -0.26970
N281        N  0.68580904  0.21057573  0.39603409    -0.34830
C282        C  0.68910577  0.19360251  0.39057340     0.01370
C283        C  0.69038106  0.18254592  0.40584002     0.07400
C284        C  0.68731051  0.19370418  0.42020314    -0.05700
H285        H  0.69104237  0.18972102  0.37667421     0.08060
H286        H  0.68718628  0.19007176  0.43438760     0.09260
Cu287      Cu  0.68421743  0.23499726  0.38146164     0.44170
Cu288      Cu  0.68163020  0.23247049  0.42958731     0.41990
Cu289      Cu  0.69067290  0.27514738  0.41128573     0.43880
N290        N  0.68391607  0.26216356  0.37290608    -0.34350
N291        N  0.68711162  0.27609474  0.38349299    -0.28610
C292        C  0.68642215  0.29140601  0.37365584    -0.04710
C293        C  0.68236179  0.28713192  0.35607398     0.07510
C294        C  0.68078345  0.26846699  0.35607827     0.01300
H295        H  0.68822415  0.30476602  0.37907714     0.08950
H296        H  0.67778223  0.26007915  0.34464581     0.08030
N297        N  0.68972680  0.27049673  0.43899762    -0.35800
N298        N  0.68549875  0.25435528  0.44553600    -0.27980
C299        C  0.68603869  0.25450681  0.46358066    -0.03220
C300        C  0.69075590  0.27171140  0.46887268     0.05390
C301        C  0.69311578  0.28153891  0.45287701     0.03480
H302        H  0.68407235  0.24266297  0.47208441     0.08590
H303        H  0.69718732  0.29555391  0.45142689     0.07420
N304        N  0.66168755  0.75828391  0.58365134    -0.26970
N305        N  0.66244180  0.75626669  0.60128971    -0.34830
C306        C  0.66237376  0.77265802  0.60886113     0.01370
C307        C  0.66175222  0.78567103  0.59514066     0.07400
C308        C  0.66124089  0.77585335  0.57937075    -0.05700
H309        H  0.66338442  0.77475383  0.62319778     0.08060
H310        H  0.66180317  0.78100322  0.56565925     0.09260
Cu311      Cu  0.66625319  0.73097600  0.61271603     0.44170
Cu312      Cu  0.66505433  0.73731154  0.56637969     0.41990
Cu313      Cu  0.68127475  0.69425595  0.58199992     0.43880
N314        N  0.67184994  0.70473790  0.62064528    -0.34350
N315        N  0.67770853  0.69164426  0.61018974    -0.28610
C316        C  0.68000507  0.67676494  0.62058413    -0.04710
C317        C  0.67513581  0.68069485  0.63826000     0.07510
C318        C  0.67005896  0.69851346  0.63767037     0.01300
H319        H  0.68431294  0.66389201  0.61555810     0.08950
H320        H  0.66537689  0.70648016  0.64886354     0.08030
N321        N  0.68184701  0.70254268  0.55470299    -0.35800
N322        N  0.67543109  0.71830657  0.54960823    -0.27980
C323        C  0.67884560  0.72114534  0.53201781    -0.03220
C324        C  0.68768698  0.70645315  0.52538287     0.05390
C325        C  0.68941919  0.69477707  0.54007847     0.03480
H326        H  0.67590930  0.73348575  0.52477256     0.08590
H327        H  0.69656837  0.68218778  0.54033717     0.07420
N328        N  0.54387447  0.24317428  0.68741165    -0.26970
N329        N  0.55123254  0.25904239  0.69084960    -0.34830
C330        C  0.53803794  0.27068107  0.69471429     0.01370
C331        C  0.52165648  0.26157677  0.69352327     0.07400
C332        C  0.52586093  0.24414657  0.68907966    -0.05700
H333        H  0.54025586  0.28425175  0.69944847     0.08060
H334        H  0.51665407  0.23269210  0.68863324     0.09260
Cu335      Cu  0.57890323  0.26246219  0.69263091     0.44170
Cu336      Cu  0.55885321  0.22036011  0.68475386     0.41990
Cu337      Cu  0.60719347  0.22165206  0.69048118     0.43880
N338        N  0.60683585  0.26272141  0.69170701    -0.34350
N339        N  0.61718844  0.24843946  0.68993764    -0.28610
C340        C  0.63450088  0.25423440  0.68792148    -0.04710
C341        C  0.63496609  0.27292936  0.68883798     0.07510
C342        C  0.61720047  0.27774775  0.69127741     0.01300
H343        H  0.64589846  0.24551661  0.68592477     0.08950
H344        H  0.61204892  0.29128330  0.69190134     0.08030
N345        N  0.59149001  0.19770384  0.69177355    -0.35800
N346        N  0.57389166  0.19781522  0.68911031    -0.27980
C347        C  0.56687916  0.18124622  0.69184076    -0.03220
C348        C  0.58060516  0.16971195  0.69637535     0.05390
C349        C  0.59611728  0.18069182  0.69628343     0.03480
H350        H  0.55255852  0.17824764  0.69162468     0.08590
H351        H  0.60964964  0.17671886  0.69969126     0.07420
N352        N  0.31802248  0.75396663  0.41235000    -0.26970
N353        N  0.31973081  0.75384314  0.39457797    -0.34830
C354        C  0.31701393  0.77072217  0.38823148     0.01370
C355        C  0.31310916  0.78169382  0.40279880     0.07400
C356        C  0.31402010  0.77057388  0.41778270    -0.05700
H357        H  0.31723785  0.77458141  0.37410185     0.08060
H358        H  0.31185542  0.77421444  0.43171804     0.09260
Cu359      Cu  0.32399096  0.72991305  0.38053469     0.44170
Cu360      Cu  0.31964786  0.73188295  0.42910308     0.41990
Cu361      Cu  0.31693199  0.68916257  0.40966894     0.43880
N362        N  0.32480962  0.70325967  0.37152898    -0.34350
N363        N  0.32121426  0.68895480  0.38194331    -0.28610
C364        C  0.32177340  0.67404804  0.37188286    -0.04710
C365        C  0.32619817  0.67903722  0.35435136     0.07510
C366        C  0.32814162  0.69764249  0.35458050     0.01300
H367        H  0.31954011  0.66048501  0.37707151     0.08950
H368        H  0.33137755  0.70645869  0.34320657     0.08030
N369        N  0.31587788  0.69267707  0.43737312    -0.35800
N370        N  0.31749348  0.70879010  0.44450162    -0.27980
C371        C  0.31605339  0.70736450  0.46252863    -0.03220
C372        C  0.31341466  0.68937073  0.46708665     0.05390
C373        C  0.31329635  0.68042835  0.45074506     0.03480
H374        H  0.31599852  0.71872706  0.47150461     0.08590
H375        H  0.31121858  0.66614605  0.44869495     0.07420
N376        N  0.31142564  0.19087422  0.60171363    -0.26970
N377        N  0.30756941  0.19074521  0.61918768    -0.34830
C378        C  0.30348098  0.17363496  0.62439538     0.01370
C379        C  0.30527881  0.16266073  0.60947684     0.07400
C380        C  0.31031413  0.17404773  0.59541894    -0.05700
H381        H  0.29912877  0.16956116  0.63785525     0.08060
H382        H  0.31186262  0.17053916  0.58136804     0.09260
Cu383      Cu  0.30729028  0.21446701  0.63421736     0.44170
Cu384      Cu  0.31427014  0.21378507  0.58603180     0.41990
Cu385      Cu  0.30582394  0.25593482  0.60628474     0.43880
N386        N  0.30691804  0.24066692  0.64445296    -0.34350
N387        N  0.30544861  0.25535744  0.63426418    -0.28610
C388        C  0.30476731  0.26986485  0.64489776    -0.04710
C389        C  0.30616713  0.26418334  0.66262673     0.07510
C390        C  0.30766739  0.24561090  0.66188219     0.01300
H391        H  0.30393208  0.28362731  0.64001878     0.08950
H392        H  0.30905127  0.23637743  0.67317923     0.08030
N393        N  0.30745185  0.25278118  0.57858389    -0.35800
N394        N  0.31052699  0.23699808  0.57125055    -0.27980
C395        C  0.30897903  0.23843951  0.55328516    -0.03220
C396        C  0.30496002  0.25608303  0.54902250     0.05390
C397        C  0.30414014  0.26486413  0.56538524     0.03480
H398        H  0.31003871  0.22730069  0.54408688     0.08590
H399        H  0.30032024  0.27866795  0.56762013     0.07420
N400        N  0.41298506  0.20738936  0.32379460    -0.26970
N401        N  0.39534223  0.20674350  0.32652136    -0.34830
C402        C  0.38948491  0.18964250  0.32412869     0.01370
C403        C  0.40428989  0.17922511  0.31956557     0.07400
C404        C  0.41888536  0.19102022  0.31954378    -0.05700
H405        H  0.37547318  0.18532493  0.32494185     0.08060
H406        H  0.43282636  0.18804727  0.31642437     0.09260
Cu407      Cu  0.38097846  0.23011586  0.33173021     0.44170
Cu408      Cu  0.42832166  0.23047538  0.32412496     0.41990
Cu409      Cu  0.40788855  0.27307091  0.32472946     0.43880
N410        N  0.37078753  0.25611818  0.33358343    -0.34350
N411        N  0.38017204  0.27120341  0.33025195    -0.28610
C412        C  0.36890194  0.28521596  0.33094810    -0.04710
C413        C  0.35170396  0.27875872  0.33515254     0.07510
C414        C  0.35340576  0.26028487  0.33683549     0.01300
H415        H  0.37293089  0.29911870  0.32846858     0.08950
H416        H  0.34264807  0.25050741  0.33941811     0.08030
N417        N  0.43557304  0.27007282  0.32044467    -0.35800
N418        N  0.44278107  0.25394860  0.32072294    -0.27980
C419        C  0.46053941  0.25538324  0.31735895    -0.03220
C420        C  0.46501920  0.27337748  0.31477907     0.05390
C421        C  0.44878241  0.28239461  0.31682434     0.03480
H422        H  0.46939151  0.24399265  0.31626290     0.08590
H423        H  0.44667511  0.29674716  0.31578590     0.07420
N424        N  0.57126143  0.71840436  0.26883653    -0.26970
N425        N  0.57770037  0.70293164  0.27463525    -0.34830
C426        C  0.56377209  0.69128070  0.27744336     0.01370
C427        C  0.54780212  0.69998723  0.27339660     0.07400
C428        C  0.55320402  0.71713534  0.26782576    -0.05700
H429        H  0.56511714  0.67774307  0.28278754     0.08060
H430        H  0.54472935  0.72810638  0.26365934     0.09260
Cu431      Cu  0.60502442  0.69972620  0.28018099     0.44170
Cu432      Cu  0.58675298  0.74140549  0.26546261     0.41990
Cu433      Cu  0.63131175  0.74217674  0.28409473     0.43880
N434        N  0.63215321  0.70128729  0.28742538    -0.34350
N435        N  0.64131143  0.71655217  0.28973140    -0.28610
C436        C  0.65791960  0.71266769  0.29572568    -0.04710
C437        C  0.65941683  0.69411617  0.29694690     0.07510
C438        C  0.64286148  0.68734957  0.29150191     0.01300
H439        H  0.66824488  0.72261917  0.29873996     0.08950
H440        H  0.63872497  0.67331746  0.29102629     0.08030
N441        N  0.61754627  0.76543351  0.27667768    -0.35800
N442        N  0.60124129  0.76473113  0.26965363    -0.27980
C443        C  0.59470800  0.78141970  0.26827769    -0.03220
C444        C  0.60755771  0.79335143  0.27446299     0.05390
C445        C  0.62193194  0.78283694  0.27971525     0.03480
H446        H  0.58113105  0.78451903  0.26416935     0.08590
H447        H  0.63401104  0.78735460  0.28647167     0.07420
N448        N  0.94983640  0.24810196  0.57545637    -0.26970
N449        N  0.96439963  0.24821560  0.58556025    -0.34830
C450        C  0.97900079  0.24488575  0.57532224     0.01370
C451        C  0.97368349  0.24275803  0.55763172     0.07400
C452        C  0.95497423  0.24474730  0.55830096    -0.05700
H453        H  0.99248990  0.24441770  0.58061252     0.08060
H454        H  0.94582838  0.24444343  0.54705709     0.09260
Cu455      Cu  0.96510157  0.25525976  0.61229400     0.44170
Cu456      Cu  0.92394445  0.25343910  0.58587499     0.41990
Cu457      Cu  0.92404514  0.26370053  0.63434532     0.43880
N458        N  0.96396061  0.26688204  0.63731659    -0.34350
N459        N  0.94854543  0.26989699  0.64573543    -0.28610
C460        C  0.95177246  0.27970252  0.66047626    -0.04710
C461        C  0.97022897  0.28314317  0.66135655     0.07510
C462        C  0.97748030  0.27473878  0.64635732     0.01300
H463        H  0.94129637  0.28479078  0.66924047     0.08950
H464        H  0.99128023  0.27546325  0.64143874     0.08030
N465        N  0.90114350  0.26196273  0.61895399    -0.35800
N466        N  0.90076556  0.25893717  0.60142359    -0.27980
C467        C  0.88356510  0.26047588  0.59591286    -0.03220
C468        C  0.87265138  0.26475415  0.61068408     0.05390
C469        C  0.88442148  0.26538038  0.62502523     0.03480
H470        H  0.87943747  0.25906448  0.58206073     0.08590
H471        H  0.88135839  0.26825235  0.63895739     0.07420
N472        N  0.08115440  0.39500258  0.72132392    -0.26970
N473        N  0.07911112  0.37726576  0.72098928    -0.34830
C474        C  0.09523620  0.36969892  0.71820318     0.01370
C475        C  0.10822948  0.38320350  0.71648711     0.07400
C476        C  0.09880649  0.39912217  0.71862219    -0.05700
H477        H  0.09716789  0.35539855  0.71654167     0.08060
H478        H  0.10427620  0.41271805  0.71798918     0.09260
Cu479      Cu  0.05466695  0.36353014  0.72129559     0.44170
Cu480      Cu  0.05953950  0.41277660  0.72416438     0.41990
Cu481      Cu  0.01583591  0.39048287  0.71971326     0.43880
N482        N  0.02947705  0.35315894  0.71534753    -0.34350
N483        N  0.01510421  0.36334244  0.71434903    -0.28610
C484        C  0.00132308  0.35364102  0.70771184    -0.04710
C485        C  0.00727822  0.33635794  0.70435241     0.07510
C486        C  0.02526494  0.33661557  0.70942415     0.01300
H487        H  0.98840212  0.35927365  0.70441691     0.08950
H488        H  0.03490530  0.32592248  0.70806721     0.08030
N489        N  0.01908625  0.41764610  0.72422700    -0.35800
N490        N  0.03479306  0.42612812  0.72586666    -0.27980
C491        C  0.03167610  0.44383465  0.72808125    -0.03220
C492        C  0.01307596  0.44656893  0.72773785     0.05390
C493        C  0.00569020  0.42953552  0.72529890     0.03480
H494        H  0.04224408  0.45385799  0.72974791     0.08590
H495        H  0.99157793  0.42597283  0.72380533     0.07420
N496        N  0.04601247  0.69256463  0.55466780    -0.26970
N497        N  0.03082417  0.69345576  0.56418284    -0.34830
C498        C  0.01684310  0.69493254  0.55296702     0.01370
C499        C  0.02331931  0.69510548  0.53534987     0.07400
C500        C  0.04196028  0.69357391  0.53701224    -0.05700
H501        H  0.00291412  0.69465474  0.55749709     0.08060
H502        H  0.05184798  0.69260259  0.52621387     0.09260
Cu503      Cu  0.02847245  0.69004711  0.59177967     0.44170
Cu504      Cu  0.07130924  0.68807351  0.56613826     0.41990
Cu505      Cu  0.06849161  0.68024728  0.61459364     0.43880
N506        N  0.02842608  0.68104964  0.61820741    -0.34350
N507        N  0.04349167  0.67710545  0.62656363    -0.28610
C508        C  0.03945406  0.66831510  0.64206129    -0.04710
C509        C  0.02086821  0.66669845  0.64358193     0.07510
C510        C  0.01428123  0.67501008  0.62824345     0.01300
H511        H  0.04933643  0.66235653  0.65083912     0.08950
H512        H  0.00042367  0.67499167  0.62381088     0.08030
N513        N  0.09216162  0.67987723  0.59992510    -0.35800
N514        N  0.09360189  0.68241778  0.58227916    -0.27980
C515        C  0.11102117  0.68021006  0.57734413    -0.03220
C516        C  0.12084476  0.67592107  0.59265437     0.05390
C517        C  0.10836013  0.67600120  0.60666553     0.03480
H518        H  0.11606889  0.68124484  0.56359765     0.08590
H519        H  0.11072066  0.67350159  0.62082927     0.07420
N520        N  0.94931376  0.53208387  0.72145977    -0.26970
N521        N  0.96470450  0.54127679  0.72238576    -0.34830
C522        C  0.97826196  0.52988929  0.72530509     0.01370
C523        C  0.97134770  0.51244109  0.72619975     0.07400
C524        C  0.95282691  0.51442030  0.72373107    -0.05700
H525        H  0.99225752  0.53413855  0.72607229     0.08060
H526        H  0.94268930  0.50385529  0.72277457     0.09260
Cu527      Cu  0.96795407  0.56841080  0.71676562     0.44170
Cu528      Cu  0.92453798  0.54424231  0.71588480     0.41990
Cu529      Cu  0.92930908  0.59174924  0.70296894     0.43880
N530        N  0.96946144  0.59349855  0.70456618    -0.34350
N531        N  0.95502528  0.60201723  0.69906074    -0.28610
C532        C  0.96020215  0.61674965  0.68952642    -0.04710
C533        C  0.97891906  0.61753329  0.68888877     0.07510
C534        C  0.98430418  0.60257474  0.69875180     0.01300
H535        H  0.95097361  0.62561030  0.68271915     0.08950
H536        H  0.99789565  0.59814597  0.70112998     0.08030
N537        N  0.90487485  0.57842895  0.70601874    -0.35800
N538        N  0.90277845  0.56110371  0.71013833    -0.27980
C539        C  0.88500930  0.55683885  0.70947074    -0.03220
C540        C  0.87571058  0.57230486  0.70499749     0.05390
C541        C  0.88870883  0.58563827  0.70282981     0.03480
H542        H  0.87933593  0.54344933  0.71165718     0.08590
H543        H  0.88666749  0.59942381  0.69849174     0.07420
N544        N  0.04117677  0.24179179  0.47284835    -0.26970
N545        N  0.02599233  0.24089803  0.46368434    -0.34830
C546        C  0.01194336  0.23861949  0.47511561     0.01370
C547        C  0.01825707  0.23786139  0.49257809     0.07400
C548        C  0.03696673  0.23993643  0.49057291    -0.05700
H549        H  0.99807802  0.23880395  0.47082195     0.08060
H550        H  0.04677483  0.24070766  0.50121589     0.09260
Cu551      Cu  0.02318752  0.24557744  0.43646696     0.44170
Cu552      Cu  0.06664134  0.24740567  0.46070478     0.41990
Cu553      Cu  0.06232937  0.25758073  0.41280713     0.43880
N554        N  0.02231587  0.25669831  0.41096388    -0.34350
N555        N  0.03729743  0.26131965  0.40215372    -0.28610
C556        C  0.03326042  0.27177248  0.38795153    -0.04710
C557        C  0.01476507  0.27393665  0.38788594     0.07510
C558        C  0.00818021  0.26402907  0.40256077     0.01300
H559        H  0.04318647  0.27863224  0.37936213     0.08950
H560        H  0.99450598  0.26392957  0.40790574     0.08030
N561        N  0.08642789  0.25785928  0.42601237    -0.35800
N562        N  0.08858658  0.25436077  0.44337848    -0.27980
C563        C  0.10628290  0.25667102  0.44712162    -0.03220
C564        C  0.11547502  0.26196444  0.43130788     0.05390
C565        C  0.10232883  0.26254066  0.41833241     0.03480
H566        H  0.11190383  0.25510927  0.46042647     0.08590
H567        H  0.10409436  0.26615379  0.40422353     0.07420
N568        N  0.95575669  0.34590196  0.33713200    -0.26970
N569        N  0.97157347  0.35344550  0.33305427    -0.34830
C570        C  0.98471677  0.34289408  0.33918163     0.01370
C571        C  0.97681281  0.32793367  0.34762119     0.07400
C572        C  0.95837668  0.33027964  0.34601843    -0.05700
H573        H  0.99896160  0.34626072  0.33809820     0.08060
H574        H  0.94763054  0.32189954  0.35177624     0.09260
Cu575      Cu  0.97469676  0.37878528  0.32174631     0.44170
Cu576      Cu  0.93171134  0.35847447  0.33223178     0.41990
Cu577      Cu  0.93496786  0.40582298  0.31772554     0.43880
N578        N  0.97553077  0.40554371  0.31411401    -0.34350
N579        N  0.96110815  0.41568434  0.31281867    -0.28610
C580        C  0.96648864  0.43259428  0.30837912    -0.04710
C581        C  0.98523500  0.43311086  0.30692290     0.07510
C582        C  0.99041803  0.41562073  0.31059087     0.01300
H583        H  0.95742272  0.44375736  0.30674771     0.08950
H584        H  0.00396020  0.41042355  0.31068560     0.08030
N585        N  0.91082322  0.39190337  0.32328273    -0.35800
N586        N  0.90982490  0.37473965  0.32824018    -0.27980
C587        C  0.89246545  0.36994165  0.33110413    -0.03220
C588        C  0.88184686  0.38476858  0.32783577     0.05390
C589        C  0.89401301  0.39848652  0.32291877     0.03480
H590        H  0.88801011  0.35660521  0.33543689     0.08590
H591        H  0.89106186  0.41239839  0.31986991     0.07420
N592        N  0.05127233  0.51816865  0.29436204    -0.26970
N593        N  0.03580373  0.52666512  0.29292631    -0.34830
C594        C  0.02212401  0.51465813  0.29266400     0.01370
C595        C  0.02906413  0.49752824  0.29385572     0.07400
C596        C  0.04768108  0.50027315  0.29498674    -0.05700
H597        H  0.00807613  0.51837087  0.29280760     0.08060
H598        H  0.05781264  0.49007483  0.29663805     0.09260
Cu599      Cu  0.03257996  0.55401849  0.29419585     0.44170
Cu600      Cu  0.07608051  0.53197561  0.29674121     0.41990
Cu601      Cu  0.07091079  0.58121026  0.29977174     0.43880
N602        N  0.03079784  0.58028595  0.30218129    -0.34350
N603        N  0.04524385  0.59051064  0.30464587    -0.28610
C604        C  0.04035388  0.60548971  0.31329168    -0.04710
C605        C  0.02184210  0.60459690  0.31645144     0.07510
C606        C  0.01626662  0.58840478  0.30912399     0.01300
H607        H  0.04978022  0.61555348  0.31811596     0.08950
H608        H  0.00305963  0.58204919  0.31046943     0.08030
N609        N  0.09538055  0.56839178  0.29841424    -0.35800
N610        N  0.09755688  0.55071311  0.29830195    -0.27980
C611        C  0.11535556  0.54739305  0.29961311    -0.03220
C612        C  0.12462658  0.56376064  0.30023588     0.05390
C613        C  0.11156689  0.57670798  0.29945830     0.03480
H614        H  0.12108933  0.53409903  0.30038489     0.08590
H615        H  0.11357943  0.59112043  0.30055528     0.07420
N616        N  0.95704386  0.68480305  0.45194669    -0.26970
N617        N  0.96961026  0.67377316  0.44616406    -0.34830
C618        C  0.98334866  0.67363272  0.45772063     0.01370
C619        C  0.97961924  0.68535115  0.47159182     0.07400
C620        C  0.96264481  0.69208923  0.46754220    -0.05700
H621        H  0.99511153  0.66540739  0.45595143     0.08060
H622        H  0.95504701  0.70177423  0.47517966     0.09260
Cu623      Cu  0.96927822  0.66056862  0.42202799     0.44170
Cu624      Cu  0.93331754  0.68914228  0.43747987     0.41990
Cu625      Cu  0.93532669  0.67081201  0.39119760     0.43880
N626        N  0.97056266  0.65281603  0.39558301    -0.34350
N627        N  0.95806392  0.65686036  0.38377466    -0.28610
C628        C  0.96314591  0.65081959  0.36748118    -0.04710
C629        C  0.97982627  0.64277710  0.36917602     0.07510
C630        C  0.98401162  0.64420888  0.38724789     0.01300
H631        H  0.95544567  0.65248765  0.35529307     0.08950
H632        H  0.99587273  0.63933683  0.39397378     0.08030
N633        N  0.91323250  0.68327239  0.40247310    -0.35800
N634        N  0.91209912  0.68972271  0.41900195    -0.27980
C635        C  0.89524025  0.69587087  0.42167522    -0.03220
C636        C  0.88535244  0.69314895  0.40607266     0.05390
C637        C  0.89732884  0.68515364  0.39427810     0.03480
H638        H  0.89045631  0.70133304  0.43427488     0.08590
H639        H  0.89471893  0.68078404  0.38068959     0.07420
N640        N  0.73365296  0.71292929  0.42868134    -0.26970
N641        N  0.71821023  0.70654910  0.42248508    -0.34830
C642        C  0.70663160  0.70395336  0.43653802     0.01370
C643        C  0.71527110  0.70913091  0.45221899     0.07400
C644        C  0.73235808  0.71472301  0.44662748    -0.05700
H645        H  0.69307395  0.69845220  0.43546848     0.08060
H646        H  0.74344360  0.71883312  0.45507287     0.09260
Cu647      Cu  0.71484603  0.70064662  0.39523155     0.44170
Cu648      Cu  0.75696629  0.71587354  0.41346978     0.41990
Cu649      Cu  0.75760926  0.69695091  0.36945125     0.43880
N650        N  0.71663216  0.69401279  0.36794132    -0.34350
N651        N  0.73203878  0.69184072  0.35898889    -0.28610
C652        C  0.72837558  0.68628944  0.34218667    -0.04710
C653        C  0.70982208  0.68521523  0.34032732     0.07510
C654        C  0.70280299  0.69029462  0.35687722     0.01300
H655        H  0.73848905  0.68344085  0.33199166     0.08950
H656        H  0.68867994  0.69073839  0.36075725     0.08030
N657        N  0.78101878  0.70366703  0.38335996    -0.35800
N658        N  0.78050490  0.71103506  0.39945461    -0.27980
C659        C  0.79732506  0.71245441  0.40584195    -0.03220
C660        C  0.80925408  0.70561039  0.39321296     0.05390
C661        C  0.79834452  0.70028434  0.37900044     0.03480
H662        H  0.80042751  0.71709782  0.41923000     0.08590
H663        H  0.80246836  0.69398724  0.36659224     0.07420
N664        N  0.22512128  0.65468223  0.58881082    -0.26970
N665        N  0.22449519  0.65384469  0.60660686    -0.34830
C666        C  0.20744982  0.65712907  0.61213545     0.01370
C667        C  0.19706301  0.66043259  0.59698649     0.07400
C668        C  0.20876759  0.65862563  0.58249350    -0.05700
H669        H  0.20308473  0.65764898  0.62610522     0.08060
H670        H  0.20574707  0.66013634  0.56832759     0.09260
Cu671      Cu  0.24774110  0.64979155  0.62164124     0.44170
Cu672      Cu  0.24829154  0.65249101  0.57369428     0.41990
Cu673      Cu  0.29043242  0.65779941  0.59533637     0.43880
N674        N  0.27368590  0.64850091  0.63223026    -0.34350
N675        N  0.28876725  0.65228083  0.62299665    -0.28610
C676        C  0.30282202  0.65152919  0.63427530    -0.04710
C677        C  0.29638872  0.64681433  0.65133401     0.07510
C678        C  0.27788206  0.64490970  0.64953425     0.01300
H679        H  0.31674594  0.65416767  0.63032019     0.08950
H680        H  0.26810985  0.64181401  0.66016127     0.08030
N681        N  0.28772883  0.65975117  0.56742598    -0.35800
N682        N  0.27203171  0.65671018  0.55971447    -0.27980
C683        C  0.27380737  0.65891647  0.54181530    -0.03220
C684        C  0.29154259  0.66362602  0.53786997     0.05390
C685        C  0.30003671  0.66417939  0.55446236     0.03480
H686        H  0.26271469  0.65815298  0.53249925     0.08590
H687        H  0.31399858  0.66775777  0.55693198     0.07420
N688        N  0.25929541  0.40924778  0.69337690    -0.26970
N689        N  0.27427612  0.40135305  0.69839099    -0.34830
C690        C  0.28661008  0.41408437  0.70251146     0.01370
C691        C  0.27895005  0.43083417  0.69991434     0.07400
C692        C  0.26158593  0.42718920  0.69414201    -0.05700
H693        H  0.29996000  0.41131617  0.70748333     0.08060
H694        H  0.25097824  0.43674836  0.69180896     0.09260
Cu695      Cu  0.27615139  0.37363492  0.70030741     0.44170
Cu696      Cu  0.23575968  0.39512060  0.68876649     0.41990
Cu697      Cu  0.23481782  0.34643041  0.69357522     0.43880
N698        N  0.27542627  0.34583695  0.69860890    -0.34350
N699        N  0.26090292  0.33588227  0.69516216    -0.28610
C700        C  0.26597462  0.31859867  0.69337454    -0.04710
C701        C  0.28443848  0.31771597  0.69620067     0.07510
C702        C  0.28990107  0.33521582  0.69948644     0.01300
H703        H  0.25690565  0.30749587  0.69037346     0.08950
H704        H  0.30355659  0.34001704  0.70170600     0.08030
N705        N  0.21159787  0.36229107  0.69394253    -0.35800
N706        N  0.21240476  0.37996909  0.69164785    -0.27980
C707        C  0.19588682  0.38678602  0.69378655    -0.03220
C708        C  0.18377454  0.37285949  0.69771413     0.05390
C709        C  0.19426813  0.35741668  0.69763046     0.03480
H710        H  0.19316528  0.40105501  0.69347740     0.08590
H711        H  0.18980860  0.34369914  0.70035509     0.07420
N712        N  0.77330798  0.57050913  0.68092123    -0.26970
N713        N  0.77272241  0.58820394  0.68269605    -0.34830
C714        C  0.78949210  0.59438371  0.68646332     0.01370
C715        C  0.80101718  0.57983540  0.68668465     0.07400
C716        C  0.79030296  0.56500928  0.68311362    -0.05700
H717        H  0.79300451  0.60833286  0.68892076     0.08060
H718        H  0.79440749  0.55108981  0.68293948     0.09260
Cu719      Cu  0.74873915  0.60250351  0.68010676     0.44170
Cu720      Cu  0.75110545  0.55369475  0.67849695     0.41990
Cu721      Cu  0.70834637  0.57335857  0.68482709     0.43880
N722        N  0.72222844  0.61156990  0.67784293    -0.34350
N723        N  0.70783271  0.60099979  0.68053772    -0.28610
C724        C  0.69286314  0.61084787  0.67902804    -0.04710
C725        C  0.69794365  0.62840768  0.67487412     0.07510
C726        C  0.71666053  0.62843232  0.67413723     0.01300
H727        H  0.67922482  0.60552961  0.68055098     0.08950
H728        H  0.72555396  0.63991469  0.67154118     0.08030
N729        N  0.71194036  0.54572930  0.68536045    -0.35800
N730        N  0.72782740  0.53848079  0.68232831    -0.27980
C731        C  0.72621245  0.52046679  0.68375092    -0.03220
C732        C  0.70839436  0.51609737  0.68797971     0.05390
C733        C  0.69970576  0.53249768  0.68884044     0.03480
H734        H  0.73736058  0.51129910  0.68258017     0.08590
H735        H  0.68559421  0.53472448  0.69184719     0.07420
N736        N  0.26424568  0.28912835  0.45806854    -0.26970
N737        N  0.28051760  0.28822186  0.45072452    -0.34830
C738        C  0.29247770  0.28478178  0.46379911     0.01370
C739        C  0.28305387  0.28343523  0.48003658     0.07400
C740        C  0.26521093  0.28611970  0.47588984    -0.05700
H741        H  0.30664152  0.28213775  0.46149947     0.08060
H742        H  0.25366030  0.28478866  0.48494071     0.09260
Cu743      Cu  0.28398231  0.28916155  0.42297384     0.44170
Cu744      Cu  0.24144254  0.29109440  0.44302989     0.41990
Cu745      Cu  0.24266921  0.29160524  0.39442498     0.43880
N746        N  0.28394978  0.29117150  0.39507254    -0.34350
N747        N  0.26959995  0.29298554  0.38473336    -0.28610
C748        C  0.27537499  0.29524694  0.36746434    -0.04710
C749        C  0.29410983  0.29443494  0.36700590     0.07510
C750        C  0.29898152  0.29181560  0.38472240     0.01300
H751        H  0.26660395  0.29715395  0.35606960     0.08950
H752        H  0.31255925  0.29100812  0.38984405     0.08030
N753        N  0.21869750  0.28797455  0.40982771    -0.35800
N754        N  0.21899056  0.28783007  0.42765296    -0.27980
C755        C  0.20253549  0.28375427  0.43434696    -0.03220
C756        C  0.19096765  0.28126932  0.42019910     0.05390
C757        C  0.20158996  0.28416466  0.40471712     0.03480
H758        H  0.19933402  0.28236464  0.44859141     0.08590
H759        H  0.19738377  0.28281003  0.39087780     0.07420
N760        N  0.72665029  0.29281155  0.56565692    -0.26970
N761        N  0.71015321  0.28929935  0.57184791    -0.34830
C762        C  0.69909754  0.28711265  0.55776021     0.01370
C763        C  0.70919987  0.28946144  0.54195691     0.07400
C764        C  0.72662034  0.29301860  0.54755610    -0.05700
H765        H  0.68488061  0.28364142  0.55895168     0.08060
H766        H  0.73864293  0.29448937  0.53917718     0.09260
Cu767      Cu  0.70428803  0.28697992  0.59925596     0.44170
Cu768      Cu  0.74882514  0.29431421  0.58193765     0.41990
Cu769      Cu  0.74297258  0.29045304  0.63002128     0.43880
N770        N  0.70208325  0.28866693  0.62714093    -0.34350
N771        N  0.71584018  0.29103939  0.63815058    -0.28610
C772        C  0.70930693  0.29351022  0.65498199    -0.04710
C773        C  0.69064268  0.29225958  0.65454049     0.07510
C774        C  0.68654567  0.28915336  0.63672305     0.01300
H775        H  0.71752313  0.29599401  0.66667208     0.08950
H776        H  0.67321391  0.28808845  0.63100177     0.08030
N777        N  0.76794078  0.28784112  0.61689796    -0.35800
N778        N  0.76971307  0.28944840  0.59918908    -0.27980
C779        C  0.78674315  0.28584748  0.59423684    -0.03220
C780        C  0.79636407  0.28167429  0.60952555     0.05390
C781        C  0.78404874  0.28325921  0.62373393     0.03480
H782        H  0.79163690  0.28612936  0.58042203     0.08590
H783        H  0.78645759  0.28066071  0.63788770     0.07420
N784        N  0.77728403  0.40049554  0.33932984    -0.26970
N785        N  0.77532612  0.38283102  0.33872759    -0.34830
C786        C  0.79176089  0.37535382  0.33852128     0.01370
C787        C  0.80462165  0.38913326  0.33875124     0.07400
C788        C  0.79492575  0.40486900  0.33926858    -0.05700
H789        H  0.79415452  0.36113643  0.33681401     0.08060
H790        H  0.80026902  0.41852059  0.33855335     0.09260
Cu791      Cu  0.75029691  0.37103707  0.33454940     0.44170
Cu792      Cu  0.75605756  0.41759007  0.33614869     0.41990
Cu793      Cu  0.71489577  0.40045000  0.31589925     0.43880
N794        N  0.72452057  0.36249590  0.32798071    -0.34350
N795        N  0.71176330  0.37250292  0.32078374    -0.28610
C796        C  0.69698316  0.36190718  0.31833850    -0.04710
C797        C  0.70066779  0.34457305  0.32448752     0.07510
C798        C  0.71823736  0.34558201  0.33044445     0.01300
H799        H  0.68433311  0.36658529  0.31303271     0.08950
H800        H  0.72601882  0.33475809  0.33616673     0.08030
N801        N  0.72249923  0.42793932  0.31618683    -0.35800
N802        N  0.73688731  0.43372107  0.32491813    -0.27980
C803        C  0.73861800  0.45163854  0.32299123    -0.03220
C804        C  0.72477774  0.45771986  0.31240787     0.05390
C805        C  0.71481612  0.44231456  0.30815108     0.03480
H806        H  0.74986292  0.45950809  0.32799613     0.08590
H807        H  0.70305867  0.44160583  0.29967242     0.07420
N808        N  0.22807376  0.56769135  0.31901485    -0.26970
N809        N  0.22878850  0.58517190  0.31539842    -0.34830
C810        C  0.21188212  0.59064864  0.31173382     0.01370
C811        C  0.20022423  0.57581424  0.31348294     0.07400
C812        C  0.21098928  0.56161994  0.31814413    -0.05700
H813        H  0.20835028  0.60428907  0.30807776     0.08060
H814        H  0.20683288  0.54765590  0.31993067     0.09260
Cu815      Cu  0.25345885  0.59954454  0.31581466     0.44170
Cu816      Cu  0.25012348  0.55171926  0.32177033     0.41990
Cu817      Cu  0.29355416  0.56971170  0.31316291     0.43880
N818        N  0.28055045  0.60823238  0.31759336    -0.34350
N819        N  0.29460734  0.59753834  0.31575323    -0.28610
C820        C  0.30992041  0.60737048  0.31706677    -0.04710
C821        C  0.30547188  0.62505245  0.32020880     0.07510
C822        C  0.28673403  0.62514183  0.32054982     0.01300
H823        H  0.32336457  0.60191965  0.31626791     0.08950
H824        H  0.27823955  0.63668299  0.32254246     0.08030
N825        N  0.28832335  0.54215832  0.31361597    -0.35800
N826        N  0.27188785  0.53574760  0.31701979    -0.27980
C827        C  0.27161494  0.51783872  0.31504198    -0.03220
C828        C  0.28880133  0.51259132  0.31031569     0.05390
C829        C  0.29917661  0.52831692  0.30964296     0.03480
H830        H  0.25963337  0.50935737  0.31638740     0.08590
H831        H  0.31324717  0.52968784  0.30565239     0.07420
N832        N  0.26560588  0.50831750  0.96082670    -0.26970
N833        N  0.26334913  0.51745760  0.97586551    -0.34830
C834        C  0.26054682  0.50596410  0.98976898     0.01370
C835        C  0.26095708  0.48855396  0.98342096     0.07400
C836        C  0.26422617  0.49057782  0.96493671    -0.05700
H837        H  0.25960194  0.51012014  0.00366233     0.08060
H838        H  0.26606289  0.47995513  0.95527202     0.09260
Cu839      Cu  0.26706491  0.54482009  0.97846650     0.44170
Cu840      Cu  0.27191107  0.52060598  0.93574174     0.41990
Cu841      Cu  0.27608586  0.56941520  0.93861755     0.43880
N842        N  0.27769465  0.57057358  0.97873715    -0.34350
N843        N  0.28136144  0.57964266  0.96367242    -0.28610
C844        C  0.29178150  0.59403007  0.96741728    -0.04710
C845        C  0.29481178  0.59398887  0.98578647     0.07510
C846        C  0.28552422  0.57902217  0.99259528     0.01300
H847        H  0.29784491  0.60300029  0.95733662     0.08950
H848        H  0.28606277  0.57362907  0.00621009     0.08030
N849        N  0.27711291  0.55563881  0.91476348    -0.35800
N850        N  0.27698545  0.53787377  0.91346050    -0.27980
C851        C  0.28074741  0.53368101  0.89615415    -0.03220
C852        C  0.28302321  0.54961554  0.88626180     0.05390
C853        C  0.28054513  0.56317647  0.89849702     0.03480
H854        H  0.28192457  0.52011016  0.89118232     0.08590
H855        H  0.28216139  0.57751072  0.89598044     0.07420
N856        N  0.36589417  0.64659940  0.04491127    -0.26970
N857        N  0.37338795  0.65103884  0.02918932    -0.34830
C858        C  0.36296686  0.64478103  0.01593803     0.01370
C859        C  0.34814539  0.63585037  0.02366615     0.07400
C860        C  0.35047180  0.63731830  0.04212288    -0.05700
H861        H  0.36634747  0.64612953  0.00173808     0.08060
H862        H  0.34224083  0.63123140  0.05278980     0.09260
Cu863      Cu  0.39860456  0.66295417  0.02641479     0.44170
Cu864      Cu  0.37825817  0.65156026  0.06911620     0.41990
Cu865      Cu  0.42530512  0.66693130  0.06673805     0.43880
N866        N  0.42538612  0.67091940  0.02617024    -0.34350
N867        N  0.43533151  0.67213639  0.04077946    -0.28610
C868        C  0.45244592  0.67622567  0.03573279    -0.04710
C869        C  0.45328759  0.67766330  0.01703078     0.07510
C870        C  0.43582252  0.67418459  0.01148645     0.01300
H871        H  0.46350654  0.67769633  0.04500617     0.08950
H872        H  0.43112377  0.67315312  0.99778948     0.08030
N873        N  0.41146029  0.66038892  0.09062627    -0.35800
N874        N  0.39427944  0.65524618  0.09131704    -0.27980
C875        C  0.38937495  0.65184125  0.10853496    -0.03220
C876        C  0.40418942  0.65479201  0.11929503     0.05390
C877        C  0.41797997  0.66025255  0.10749006     0.03480
H878        H  0.37610969  0.64700496  0.11280988     0.08590
H879        H  0.43171209  0.66391395  0.11084649     0.07420
N880        N  0.41485603  0.25948398  0.92020958    -0.26970
N881        N  0.39715667  0.26067354  0.92224152    -0.34830
C882        C  0.38957314  0.26350706  0.90615124     0.01370
C883        C  0.40305162  0.26422934  0.89310882     0.07400
C884        C  0.41898367  0.26169119  0.90251835    -0.05700
H885        H  0.37535818  0.26597165  0.90432726     0.08060
H886        H  0.43257714  0.26185130  0.89697302     0.09260
Cu887      Cu  0.38374441  0.26122009  0.94659164     0.44170
Cu888      Cu  0.43214909  0.25606709  0.94219009     0.41990
Cu889      Cu  0.40879151  0.25757138  0.98643656     0.43880
N890        N  0.37276013  0.26604271  0.97155335    -0.34350
N891        N  0.38188494  0.26432386  0.98662331    -0.28610
C892        C  0.37185825  0.27050276  0.00040463    -0.04710
C893        C  0.35576922  0.27656650  0.99348954     0.07510
C894        C  0.35682638  0.27361302  0.97517190     0.01300
H895        H  0.37659356  0.27205185  0.01404815     0.08950
H896        H  0.34728706  0.27777960  0.96507157     0.08030
N897        N  0.43621211  0.25413378  0.98293064    -0.35800
N898        N  0.44488617  0.25352887  0.96724515    -0.27980
C899        C  0.46268198  0.25201766  0.97045410    -0.03220
C900        C  0.46535567  0.25174406  0.98906084     0.05390
C901        C  0.44811816  0.25319331  0.99637818     0.03480
H902        H  0.47290615  0.25154085  0.95992919     0.08590
H903        H  0.44427400  0.25429787  0.01040820     0.07420
N904        N  0.26888009  0.40612913  0.05220744    -0.26970
N905        N  0.26898049  0.39614833  0.03756034    -0.34830
C906        C  0.26641460  0.40662228  0.02297889     0.01370
C907        C  0.26472378  0.42422822  0.02845971     0.07400
C908        C  0.26614795  0.42340645  0.04716066    -0.05700
H909        H  0.26624943  0.40167749  0.00933231     0.08060
H910        H  0.26604431  0.43463452  0.05631211     0.09260
Cu911      Cu  0.27532119  0.36930310  0.03664710     0.44170
Cu912      Cu  0.27407479  0.39555971  0.07801273     0.41990
Cu913      Cu  0.28733803  0.34812489  0.07709034     0.43880
N914        N  0.28804285  0.34489299  0.03724017    -0.34350
N915        N  0.29264443  0.33696753  0.05247108    -0.28610
C916        C  0.30317057  0.32289982  0.04880127    -0.04710
C917        C  0.30547732  0.32205221  0.03026998     0.07510
C918        C  0.29550939  0.33613907  0.02336231     0.01300
H919        H  0.30977929  0.31481410  0.05892409     0.08950
H920        H  0.29441057  0.34034227  0.00940689     0.08030
N921        N  0.28511332  0.36296276  0.10013167    -0.35800
N922        N  0.28059974  0.38010494  0.10088453    -0.27980
C923        C  0.28147766  0.38529503  0.11822278    -0.03220
C924        C  0.28696543  0.37073354  0.12871132     0.05390
C925        C  0.28899289  0.35684433  0.11670059     0.03480
H926        H  0.27870395  0.39876333  0.12278754     0.08590
H927        H  0.29292367  0.34316920  0.11964317     0.07420
N928        N  0.70608158  0.53294509  0.04174120    -0.26970
N929        N  0.69860324  0.54042608  0.02743852    -0.34830
C930        C  0.69850300  0.52873579  0.01383864     0.01370
C931        C  0.70636538  0.51297653  0.01957040     0.07400
C932        C  0.71108921  0.51610761  0.03739558    -0.05700
H933        H  0.69309544  0.53162580  0.00064869     0.08060
H934        H  0.71725097  0.50673657  0.04665524     0.09260
Cu935      Cu  0.68811570  0.56585063  0.02598853     0.44170
Cu936      Cu  0.70821822  0.54624159  0.06648686     0.41990
Cu937      Cu  0.68537746  0.58999978  0.06583442     0.43880
N938        N  0.67622604  0.59062344  0.02701958    -0.34350
N939        N  0.67441042  0.59938027  0.04227925    -0.28610
C940        C  0.66539570  0.61464855  0.03920756    -0.04710
C941        C  0.66163182  0.61553339  0.02102555     0.07510
C942        C  0.66871747  0.60015723  0.01364372     0.01300
H943        H  0.66215677  0.62448145  0.04934055     0.08950
H944        H  0.66818578  0.59606579  0.99972288     0.08030
N945        N  0.69852289  0.57945194  0.08770827    -0.35800
N946        N  0.70684108  0.56382782  0.08842470    -0.27980
C947        C  0.71358020  0.56170409  0.10513905    -0.03220
C948        C  0.70913107  0.57666462  0.11531972     0.05390
C949        C  0.69975040  0.58761553  0.10365951     0.03480
H950        H  0.72088340  0.55000627  0.10963498     0.08590
H951        H  0.69431054  0.60074584  0.10634365     0.07420
N952        N  0.53812280  0.69055237  0.95071238    -0.26970
N953        N  0.54668389  0.69338986  0.96597716    -0.34830
C954        C  0.53485998  0.69269857  0.97980513     0.01370
C955        C  0.51788613  0.68906689  0.97316861     0.07400
C956        C  0.52037343  0.68803190  0.95457681    -0.05700
H957        H  0.53860262  0.69410072  0.99376871     0.08060
H958        H  0.51022444  0.68473517  0.94473992     0.09260
Cu959      Cu  0.57420391  0.69414940  0.96894551     0.44170
Cu960      Cu  0.55183127  0.68838033  0.92592546     0.41990
Cu961      Cu  0.60084405  0.68426470  0.93104836     0.43880
N962        N  0.60000749  0.68475974  0.97117323    -0.34350
N963        N  0.60990566  0.68070282  0.95693452    -0.28610
C964        C  0.62415605  0.67116099  0.96227910    -0.04710
C965        C  0.62311976  0.66899639  0.98087464     0.07510
C966        C  0.60762123  0.67790721  0.98603158     0.01300
H967        H  0.63337949  0.66466503  0.95309818     0.08950
H968        H  0.60143567  0.67806980  0.99933013     0.08030
N969        N  0.58802055  0.68486288  0.90660095    -0.35800
N970        N  0.57036678  0.68599822  0.90447041    -0.27980
C971        C  0.56683830  0.68468945  0.88674748    -0.03220
C972        C  0.58305922  0.68254454  0.87735917     0.05390
C973        C  0.59613196  0.68284413  0.89046664     0.03480
H974        H  0.55342377  0.68515373  0.88121130     0.08590
H975        H  0.61048461  0.68096390  0.88856463     0.07420
N976        N  0.55352402  0.26081484  0.04943628    -0.26970
N977        N  0.56230744  0.26228014  0.03385470    -0.34830
C978        C  0.55084131  0.25965005  0.02028148     0.01370
C979        C  0.53364202  0.25640421  0.02737106     0.07400
C980        C  0.53598383  0.25720533  0.04603753    -0.05700
H981        H  0.55506037  0.26056910  0.00632537     0.08060
H982        H  0.52566031  0.25581086  0.05643702     0.09260
Cu983      Cu  0.58905236  0.26959567  0.03068896     0.44170
Cu984      Cu  0.56626402  0.26495559  0.07425110     0.41990
Cu985      Cu  0.61445468  0.27764574  0.06953333     0.43880
N986        N  0.61503083  0.27971370  0.02944675    -0.34350
N987        N  0.62472521  0.28243958  0.04394263    -0.28610
C988        C  0.64033380  0.29070987  0.03908867    -0.04710
C989        C  0.64044982  0.29350851  0.02050258     0.07510
C990        C  0.62404812  0.28629270  0.01492785     0.01300
H991        H  0.65032568  0.29515519  0.04861205     0.08950
H992        H  0.61831866  0.28678490  0.00162992     0.08030
N993        N  0.60060964  0.27552790  0.09378780    -0.35800
N994        N  0.58335763  0.27101067  0.09584992    -0.27980
C995        C  0.57900391  0.27200626  0.11352571    -0.03220
C996        C  0.59423039  0.27751023  0.12305212     0.05390
C997        C  0.60758659  0.27961150  0.10985966     0.03480
H998        H  0.56558305  0.26926649  0.11889955     0.08590
H999        H  0.62129656  0.28441163  0.11139337     0.07420
N1000       N  0.71149655  0.43057928  0.95279422    -0.26970
N1001       N  0.71391712  0.42123350  0.96788178    -0.34830
C1002       C  0.71570609  0.43258949  0.98172122     0.01370
C1003       C  0.71402713  0.44995919  0.97522381     0.07400
C1004       C  0.71135531  0.44823402  0.95682048    -0.05700
H1005       H  0.71669475  0.42841626  0.99571258     0.08060
H1006       H  0.70885175  0.45896160  0.94719713     0.09260
Cu1007     Cu  0.71075958  0.39367260  0.97047540     0.44170
Cu1008     Cu  0.70701643  0.41876115  0.92767589     0.41990
Cu1009     Cu  0.69958959  0.37036822  0.93089406     0.43880
N1010       N  0.70138948  0.36735893  0.97090714    -0.34350
N1011       N  0.69754896  0.35863375  0.95604777    -0.28610
C1012       C  0.68950249  0.34283034  0.96039970    -0.04710
C1013       C  0.68793846  0.34153664  0.97904284     0.07510
C1014       C  0.69570370  0.35742830  0.98522434     0.01300
H1015       H  0.68415727  0.33361271  0.95057345     0.08950
H1016       H  0.69585575  0.36225437  0.99890296     0.08030
N1017       N  0.69878160  0.38480242  0.90714580    -0.35800
N1018       N  0.70173537  0.40236827  0.90548788    -0.27980
C1019       C  0.69981204  0.40710621  0.88798804    -0.03220
C1020       C  0.69521270  0.39175702  0.87841820     0.05390
C1021       C  0.69465410  0.37796161  0.89104820     0.03480
H1022       H  0.70105866  0.42075178  0.88275024     0.08590
H1023       H  0.69142039  0.36391623  0.88875529     0.07420
N1024       N  0.67331275  0.39353204  0.77486588    -0.26970
N1025       N  0.67099723  0.37586876  0.77570998    -0.34830
C1026       C  0.67333110  0.37037635  0.79294633     0.01370
C1027       C  0.67755792  0.38541829  0.80315358     0.07400
C1028       C  0.67742512  0.39977615  0.79119379    -0.05700
H1029       H  0.67284617  0.35647071  0.79751737     0.08060
H1030       H  0.68042349  0.41375824  0.79405043     0.09260
Cu1031     Cu  0.66705483  0.36095931  0.75231024     0.44170
Cu1032     Cu  0.67264317  0.40845644  0.75156129     0.41990
Cu1033     Cu  0.67664711  0.38707637  0.70942387     0.43880
N1034       N  0.66710093  0.35021889  0.72633995    -0.34350
N1035       N  0.67141265  0.35931593  0.71132102    -0.28610
C1036       C  0.67155451  0.34781471  0.69742683    -0.04710
C1037       C  0.66689201  0.33074916  0.70387039     0.07510
C1038       C  0.66405917  0.33280271  0.72222463     0.01300
H1039       H  0.67472097  0.35163302  0.68358843     0.08950
H1040       H  0.66066252  0.32227625  0.73199011     0.08030
N1041       N  0.67925321  0.41498147  0.71216104    -0.35800
N1042       N  0.67683875  0.42254252  0.72799896    -0.27980
C1043       C  0.67935863  0.44038815  0.72642211    -0.03220
C1044       C  0.68372948  0.44451709  0.70867596     0.05390
C1045       C  0.68357768  0.42803759  0.69992053     0.03480
H1046       H  0.67889142  0.44957112  0.73762336     0.08590
H1047       H  0.68649011  0.42568519  0.68581925     0.07420
N1048       N  0.58647955  0.66757994  0.77236878    -0.26970
N1049       N  0.60428467  0.66743569  0.77250051    -0.34830
C1050       C  0.60959454  0.66927264  0.78980404     0.01370
C1051       C  0.59418904  0.67055438  0.80082408     0.07400
C1052       C  0.57994735  0.66948332  0.78908691    -0.05700
H1053       H  0.62352157  0.66954069  0.79399240     0.08060
H1054       H  0.56570643  0.67046575  0.79227376     0.09260
Cu1055     Cu  0.61882563  0.66509143  0.74803440     0.44170
Cu1056     Cu  0.57090078  0.66624841  0.75006692     0.41990
Cu1057     Cu  0.58849504  0.66803871  0.70697770     0.43880
N1058       N  0.62715134  0.66377037  0.72074025    -0.34350
N1059       N  0.61640791  0.66569690  0.70667200    -0.28610
C1060       C  0.62628853  0.66491104  0.69138634    -0.04710
C1061       C  0.64404854  0.66206590  0.69579179     0.07510
C1062       C  0.64415149  0.66129957  0.71450963     0.01300
H1063       H  0.62079932  0.66585388  0.67796030     0.08950
H1064       H  0.65576317  0.65934063  0.72296767     0.08030
N1065       N  0.56084146  0.66880664  0.71159880    -0.35800
N1066       N  0.55458960  0.66811824  0.72831940    -0.27980
C1067       C  0.53671210  0.67034401  0.72846247    -0.03220
C1068       C  0.53126002  0.67236214  0.71087127     0.05390
C1069       C  0.54687576  0.67127242  0.70038733     0.03480
H1070       H  0.52840618  0.67111761  0.74054699     0.08590
H1071       H  0.54811444  0.67317098  0.68592468     0.07420
N1072       N  0.73007558  0.55422664  0.26606311    -0.26970
N1073       N  0.72435588  0.56069129  0.28160508    -0.34830
C1074       C  0.72173988  0.54681043  0.29333111     0.01370
C1075       C  0.72575105  0.53087768  0.28457418     0.07400
C1076       C  0.73112817  0.53622037  0.26735416    -0.05700
H1077       H  0.71654344  0.54813414  0.30695255     0.08060
H1078       H  0.73521089  0.52769236  0.25636787     0.09260
Cu1079     Cu  0.71850690  0.58795226  0.28484041     0.44170
Cu1080     Cu  0.73356698  0.56945293  0.24285867     0.41990
Cu1081     Cu  0.71329337  0.61291922  0.24202734     0.43880
N1082       N  0.71079592  0.61490820  0.28291121    -0.34350
N1083       N  0.70804951  0.62354398  0.26745785    -0.28610
C1084       C  0.70207411  0.64019149  0.27098831    -0.04710
C1085       C  0.70128119  0.64229694  0.28951106     0.07510
C1086       C  0.70698866  0.62602750  0.29663488     0.01300
H1087       H  0.69886480  0.65016417  0.26079775     0.08950
H1088       H  0.70791172  0.62239826  0.31077402     0.08030
N1089       N  0.72107606  0.59935738  0.21878107    -0.35800
N1090       N  0.72919748  0.58366201  0.21937396    -0.27980
C1091       C  0.73129111  0.57745847  0.20256255    -0.03220
C1092       C  0.72412577  0.58980572  0.19061131     0.05390
C1093       C  0.71776483  0.60357035  0.20142221     0.03480
H1094       H  0.73628762  0.56422577  0.19949958     0.08590
H1095       H  0.71055104  0.61538336  0.19708942     0.07420
N1096       N  0.41772989  0.64290165  0.22441183    -0.26970
N1097       N  0.40009495  0.64420525  0.22623195    -0.34830
C1098       C  0.39269006  0.64475537  0.20978078     0.01370
C1099       C  0.40648497  0.64404390  0.19685109     0.07400
C1100       C  0.42216080  0.64275821  0.20681945    -0.05700
H1101       H  0.37841792  0.64635543  0.20766960     0.08060
H1102       H  0.43593833  0.64303763  0.20180493     0.09260
Cu1103     Cu  0.38815802  0.64841717  0.25113561     0.44170
Cu1104     Cu  0.43487124  0.64559470  0.24575651     0.41990
Cu1105     Cu  0.41773043  0.66710792  0.28620025     0.43880
N1106       N  0.37974881  0.65462964  0.27699413    -0.34350
N1107       N  0.38991316  0.66183623  0.28965921    -0.28610
C1108       C  0.37958549  0.66389909  0.30463877    -0.04710
C1109       C  0.36223923  0.65749724  0.30118878     0.07510
C1110       C  0.36295280  0.65178356  0.28353799     0.01300
H1111       H  0.38448059  0.66908729  0.31726392     0.08950
H1112       H  0.35203292  0.64593470  0.27590382     0.08030
N1113       N  0.44514557  0.66685370  0.27854247    -0.35800
N1114       N  0.45099426  0.65756556  0.26458635    -0.27980
C1115       C  0.46892015  0.65973682  0.26275580    -0.03220
C1116       C  0.47487587  0.67107970  0.27604896     0.05390
C1117       C  0.45944103  0.67551333  0.28580806     0.03480
H1118       H  0.47685442  0.65442438  0.25173965     0.08590
H1119       H  0.45864149  0.68455278  0.29710685     0.07420
N1120       N  0.30967623  0.41643377  0.27411956    -0.26970
N1121       N  0.31115469  0.41104937  0.29106157    -0.34830
C1122       C  0.31027824  0.42556594  0.30175955     0.01370
C1123       C  0.30795928  0.44063298  0.29082018     0.07400
C1124       C  0.30757010  0.43430453  0.27344057    -0.05700
H1125       H  0.31010945  0.42505224  0.31635355     0.08060
H1126       H  0.30512271  0.44200549  0.26124185     0.09260
Cu1127     Cu  0.31189131  0.38379415  0.29766194     0.44170
Cu1128     Cu  0.30857803  0.39923371  0.25287147     0.41990
Cu1129     Cu  0.31201596  0.35177796  0.25877311     0.43880
N1130       N  0.31238717  0.35584664  0.29975158    -0.34350
N1131       N  0.31341821  0.34453437  0.28608640    -0.28610
C1132       C  0.31479076  0.32765344  0.29276524    -0.04710
C1133       C  0.31417106  0.32838477  0.31139756     0.07510
C1134       C  0.31264790  0.34640424  0.31535916     0.01300
H1135       H  0.31606158  0.31572045  0.28465762     0.08950
H1136       H  0.31241504  0.35230446  0.32862498     0.08030
N1137       N  0.30727338  0.36393662  0.23372409    -0.35800
N1138       N  0.30575449  0.38158160  0.23216652    -0.27980
C1139       C  0.30156819  0.38602773  0.21519909    -0.03220
C1140       C  0.30032024  0.37046058  0.20534749     0.05390
C1141       C  0.30422088  0.35661400  0.21744254     0.03480
H1142       H  0.29966772  0.39969053  0.21042012     0.08590
H1143       H  0.30432856  0.34233088  0.21472934     0.07420
N1144       N  0.31309471  0.52336263  0.73948898    -0.26970
N1145       N  0.30880919  0.53046315  0.72375152    -0.34830
C1146       C  0.30417690  0.51714125  0.71253216     0.01370
C1147       C  0.30548108  0.50080014  0.72174636     0.07400
C1148       C  0.31115686  0.50537942  0.73885426    -0.05700
H1149       H  0.29957134  0.51931663  0.69890763     0.08060
H1150       H  0.31256212  0.49655537  0.75044639     0.09260
Cu1151     Cu  0.30760696  0.55801298  0.71947039     0.44170
Cu1152     Cu  0.31807084  0.53857999  0.76188294     0.41990
Cu1153     Cu  0.30973274  0.58639435  0.75962881     0.43880
N1154       N  0.30871561  0.58589507  0.71866200    -0.34350
N1155       N  0.31039650  0.59630157  0.73293495    -0.28610
C1156       C  0.31252849  0.61353803  0.72716016    -0.04710
C1157       C  0.31178281  0.61392901  0.70844960     0.07510
C1158       C  0.30931189  0.59617805  0.70359298     0.01300
H1159       H  0.31449023  0.62493302  0.73590672     0.08950
H1160       H  0.30875253  0.59100202  0.69003453     0.08030
N1161       N  0.30945658  0.57125845  0.78378019    -0.35800
N1162       N  0.31380705  0.55405892  0.78423672    -0.27980
C1163       C  0.31179791  0.54752566  0.80110366    -0.03220
C1164       C  0.30560680  0.56108735  0.81198904     0.05390
C1165       C  0.30427568  0.57604260  0.80056902     0.03480
H1166       H  0.31348025  0.53352762  0.80488244     0.08590
H1167       H  0.29952033  0.58925505  0.80408807     0.07420
N1168       N  0.43081286  0.28702957  0.74233110    -0.26970
N1169       N  0.42315739  0.28389577  0.72670275    -0.34830
C1170       C  0.43611948  0.28031185  0.71441660     0.01370
C1171       C  0.45265212  0.28096665  0.72296863     0.07400
C1172       C  0.44874067  0.28535648  0.74062672    -0.05700
H1173       H  0.43362926  0.27658648  0.70060072     0.08060
H1174       H  0.45812149  0.28674406  0.75159638     0.09260
Cu1175     Cu  0.39532415  0.28305718  0.72439477     0.44170
Cu1176     Cu  0.41635218  0.29093853  0.76561388     0.41990
Cu1177     Cu  0.36782128  0.28774989  0.76656207     0.43880
N1178       N  0.36737017  0.28388413  0.72564569    -0.34350
N1179       N  0.35739792  0.28648739  0.74034300    -0.28610
C1180       C  0.33994812  0.28761827  0.73545589    -0.04710
C1181       C  0.33896854  0.28521829  0.71695461     0.07510
C1182       C  0.35658132  0.28288434  0.71126114     0.01300
H1183       H  0.32879102  0.28986501  0.74468513     0.08950
H1184       H  0.36131721  0.28118775  0.69752346     0.08030
N1185       N  0.38360902  0.28728941  0.78991104    -0.35800
N1186       N  0.40138025  0.28889605  0.78895862    -0.27980
C1187       C  0.40835378  0.28684907  0.80540327    -0.03220
C1188       C  0.39440649  0.28389369  0.81770903     0.05390
C1189       C  0.37880739  0.28418787  0.80734678     0.03480
H1190       H  0.42268984  0.28640320  0.80784134     0.08590
H1191       H  0.36506458  0.28181758  0.81203336     0.07420
N1192       N  0.58979055  0.30472663  0.22670710    -0.26970
N1193       N  0.60739355  0.30212955  0.22690723    -0.34830
C1194       C  0.61276395  0.29718696  0.21024218     0.01370
C1195       C  0.59774816  0.29653993  0.19908881     0.07400
C1196       C  0.58353544  0.30165998  0.21012615    -0.05700
H1197       H  0.62647415  0.29369158  0.20672158     0.08060
H1198       H  0.56947780  0.30279905  0.20671627     0.09260
Cu1199     Cu  0.62252818  0.30418610  0.25052370     0.44170
Cu1200     Cu  0.57372856  0.30885799  0.24913087     0.41990
Cu1201     Cu  0.59379268  0.29747713  0.29063421     0.43880
N1202       N  0.63198369  0.30502491  0.27704620    -0.34350
N1203       N  0.62148631  0.30146860  0.29129840    -0.28610
C1204       C  0.63135824  0.30241151  0.30632260    -0.04710
C1205       C  0.64889040  0.30707365  0.30147033     0.07510
C1206       C  0.64885325  0.30873110  0.28279839     0.01300
H1207       H  0.62601132  0.30040178  0.31987416     0.08950
H1208       H  0.66026162  0.31214406  0.27406154     0.08030
N1209       N  0.56611791  0.29861403  0.28754766    -0.35800
N1210       N  0.55870382  0.30384418  0.27230150    -0.27980
C1211       C  0.54063219  0.30281474  0.27409690    -0.03220
C1212       C  0.53646457  0.29648516  0.29131880     0.05390
C1213       C  0.55297434  0.29402042  0.29950450     0.03480
H1214       H  0.53127532  0.30538546  0.26331683     0.08590
H1215       H  0.55530960  0.28893987  0.31300315     0.07420
C1216       C  0.69555067  0.65844861  0.29948726     0.03450
C1217       C  0.68061330  0.66836290  0.29372999    -0.12700
C1218       C  0.67516417  0.68375550  0.30308187     0.00950
C1219       C  0.68478123  0.68918799  0.31835344    -0.11230
C1220       C  0.69972825  0.67941515  0.32426504     0.03440
C1221       C  0.70504226  0.66407475  0.31476383    -0.10650
H1222       H  0.67322813  0.66410816  0.28196054     0.09040
H1223       H  0.68063616  0.70102276  0.32564297     0.06570
H1224       H  0.71658324  0.65651777  0.31926258     0.06410
C1225       C  0.67706739  0.37817347  0.85380808    -0.20980
C1226       C  0.69087918  0.39013663  0.85911021    -0.09030
C1227       C  0.70061417  0.40004279  0.84584657     0.29830
C1228       C  0.69633928  0.39820676  0.82764648    -0.20990
C1229       C  0.68241782  0.38637615  0.82236301    -0.09040
C1230       C  0.67281218  0.37631912  0.83559346     0.29840
F1231       F  0.65882069  0.36534016  0.83100351    -0.19560
H1232       H  0.66930749  0.37049203  0.86383149     0.18200
H1233       H  0.70403718  0.40595054  0.81761971     0.18210
F1234       F  0.71461234  0.41102993  0.85040158    -0.19550
C1235       C  0.57976635  0.28162832  0.15351053    -0.20980
C1236       C  0.59551443  0.28159211  0.14272164    -0.09030
C1237       C  0.61214899  0.28573924  0.15100317     0.29830
C1238       C  0.61270792  0.29046616  0.16922348    -0.20990
C1239       C  0.59687353  0.29095948  0.17983277    -0.09040
C1240       C  0.58037053  0.28606691  0.17176374     0.29840
F1241       F  0.56469361  0.28511533  0.18140910    -0.19560
H1242       H  0.56676100  0.27828847  0.14790317     0.18200
H1243       H  0.62565477  0.29391629  0.17494525     0.18210
F1244       F  0.62804878  0.28514311  0.14178207    -0.19550
C1245       C  0.66699089  0.31483856  0.01829308    -0.20980
C1246       C  0.65379449  0.30435900  0.00960959    -0.09030
C1247       C  0.65317115  0.30507006  0.99061627     0.29830
C1248       C  0.66461716  0.31680961  0.98083902    -0.20990
C1249       C  0.67717704  0.32793871  0.98960554    -0.09040
C1250       C  0.67862119  0.32638972  0.00846783     0.29840
F1251       F  0.69122711  0.33596205  0.01756604    -0.19560
H1252       H  0.66820435  0.31450339  0.03279729     0.18200
H1253       H  0.66320063  0.31739450  0.96635408     0.18210
F1254       F  0.64156012  0.29455151  0.98126905    -0.19550
C1255       C  0.60274891  0.68396728  0.84950540    -0.20980
C1256       C  0.58605011  0.67933540  0.85782572    -0.09030
C1257       C  0.57261449  0.67110156  0.84742694     0.29830
C1258       C  0.57574398  0.66787188  0.82917431    -0.20990
C1259       C  0.59222234  0.67290062  0.82065325    -0.09040
C1260       C  0.60583885  0.68084269  0.83110002     0.29840
F1261       F  0.62186935  0.68615125  0.82352206    -0.19560
H1262       H  0.61335817  0.69034451  0.85717526     0.18200
H1263       H  0.56511248  0.66126787  0.82174472     0.18210
F1264       F  0.55658361  0.66562711  0.85489954    -0.19550
C1265       C  0.72835119  0.57268705  0.14260327    -0.20980
C1266       C  0.71318458  0.58030087  0.13450654    -0.09030
C1267       C  0.70202711  0.59149540  0.14491293     0.29830
C1268       C  0.70601443  0.59490728  0.16291569    -0.20990
C1269       C  0.72104018  0.58714459  0.17108483    -0.09040
C1270       C  0.73231602  0.57608789  0.16067439     0.29840
F1271       F  0.74735370  0.56878502  0.16780222    -0.19560
H1272       H  0.73729374  0.56423580  0.13488587     0.18200
H1273       H  0.69690667  0.60318494  0.17062705     0.18210
F1274       F  0.68676612  0.59858154  0.13805532    -0.19550
C1275       C  0.72457341  0.46947938  0.00030822    -0.20980
C1276       C  0.71239229  0.46624676  0.98630009    -0.09030
C1277       C  0.69807205  0.47809484  0.98368307     0.29830
C1278       C  0.69613487  0.49302580  0.99475781    -0.20990
C1279       C  0.70844690  0.49652307  0.00863267    -0.09040
C1280       C  0.72275165  0.48457287  0.01131699     0.29840
F1281       F  0.73529636  0.48774874  0.02411251    -0.19560
H1282       H  0.73565640  0.46041088  0.00255647     0.18200
H1283       H  0.68478521  0.50175766  0.99256836     0.18210
F1284       F  0.68549842  0.47483702  0.97092019    -0.19550
C1285       C  0.66034291  0.63829877  0.99637612    -0.20980
C1286       C  0.65214681  0.62982685  0.01143414    -0.09030
C1287       C  0.63479956  0.63483123  0.01699769     0.29830
C1288       C  0.62558978  0.64794045  0.00727939    -0.20990
C1289       C  0.63362749  0.65633478  0.99196629    -0.09040
C1290       C  0.65128746  0.65163002  0.98681301     0.29840
F1291       F  0.65990292  0.65999585  0.97267937    -0.19560
H1292       H  0.67384083  0.63465925  0.99211663     0.18200
H1293       H  0.61194200  0.65104137  0.01144867     0.18210
F1294       F  0.62644234  0.62641236  0.03127126    -0.19550
C1295       C  0.28065571  0.38169814  0.15979553    -0.20980
C1296       C  0.29007586  0.37005716  0.14842802    -0.09030
C1297       C  0.30231934  0.35785439  0.15613209     0.29830
C1298       C  0.30506128  0.35751395  0.17477637    -0.20990
C1299       C  0.29593376  0.36947144  0.18600587    -0.09040
C1300       C  0.28349314  0.38142047  0.17838025     0.29840
F1301       F  0.27383921  0.39268652  0.18892011    -0.19560
H1302       H  0.27094854  0.39097350  0.15432067     0.18200
H1303       H  0.31486425  0.34838652  0.18035160     0.18210
F1304       F  0.31231770  0.34682538  0.14567381    -0.19550
C1305       C  0.38271887  0.26952522  0.84650987    -0.20980
C1306       C  0.39634346  0.27939869  0.83721165    -0.09030
C1307       C  0.41214697  0.28424645  0.84658055     0.29830
C1308       C  0.41436614  0.27888244  0.86454648    -0.20990
C1309       C  0.40081180  0.26894256  0.87377185    -0.09040
C1310       C  0.38486670  0.26435926  0.86458657     0.29840
F1311       F  0.37152472  0.25443880  0.87286459    -0.19560
H1312       H  0.37050514  0.26544448  0.83971059     0.18200
H1313       H  0.42656056  0.28295854  0.87139745     0.18210
F1314       F  0.42534069  0.29463405  0.83867410    -0.19550
C1315       C  0.49916811  0.25454246  0.98933800    -0.20980
C1316       C  0.48285829  0.25164194  0.99889363    -0.09030
C1317       C  0.48362920  0.24917281  0.01780069     0.29830
C1318       C  0.50011749  0.25046056  0.02676197    -0.20990
C1319       C  0.51638322  0.25402519  0.01727307    -0.09040
C1320       C  0.51566572  0.25564200  0.99825079     0.29840
F1321       F  0.53069323  0.25858585  0.98794772    -0.19560
H1322       H  0.49928114  0.25635394  0.97483998     0.18200
H1323       H  0.49999525  0.24867755  0.04126145     0.18210
F1324       F  0.46859678  0.24532921  0.02785276    -0.19550
C1325       C  0.33844078  0.30470011  0.99534310    -0.20980
C1326       C  0.34254613  0.28781042  0.00272194    -0.09030
C1327       C  0.33438147  0.28211781  0.01903067     0.29830
C1328       C  0.32206824  0.29321402  0.02776116    -0.20990
C1329       C  0.31795850  0.31022045  0.02045606    -0.09040
C1330       C  0.32644870  0.31596158  0.00420437     0.29840
F1331       F  0.32394423  0.33273019  0.99726960    -0.19560
H1332       H  0.34498226  0.30940994  0.98294794     0.18200
H1333       H  0.31572081  0.28847864  0.04023053     0.18210
F1334       F  0.33805106  0.26571752  0.02628935    -0.19550
C1335       C  0.38941178  0.65492959  0.14968244    -0.20980
C1336       C  0.40490087  0.65207072  0.13905724    -0.09030
C1337       C  0.42067063  0.64617606  0.14743479     0.29830
C1338       C  0.42085967  0.64325629  0.16608330    -0.20990
C1339       C  0.40545360  0.64638279  0.17689439    -0.09040
C1340       C  0.38963083  0.65226556  0.16837253     0.29840
F1341       F  0.37440289  0.65590512  0.17789430    -0.19560
H1342       H  0.37711803  0.65957366  0.14353577     0.18200
H1343       H  0.43318291  0.63842715  0.17195095     0.18210
F1344       F  0.43576777  0.64264847  0.13760296    -0.19550
C1345       C  0.48650601  0.67542514  0.01200972    -0.20980
C1346       C  0.46962395  0.68052468  0.00549091    -0.09030
C1347       C  0.46863757  0.68798519  0.98793514     0.29830
C1348       C  0.48431763  0.69040637  0.97731906    -0.20990
C1349       C  0.50121867  0.68559253  0.98403186    -0.09040
C1350       C  0.50211070  0.67781158  0.00143973     0.29840
F1351       F  0.51796396  0.67194127  0.00813908    -0.19560
H1352       H  0.48765642  0.66924091  0.02524700     0.18200
H1353       H  0.48330057  0.69647371  0.96400878     0.18210
F1354       F  0.45268138  0.69352282  0.98120397    -0.19550
C1355       C  0.27925222  0.56431553  0.85615223    -0.20980
C1356       C  0.28857605  0.55218373  0.86719046    -0.09030
C1357       C  0.30380015  0.54354121  0.86019354     0.29830
C1358       C  0.30942406  0.54684176  0.84234299    -0.20990
C1359       C  0.30001256  0.55883331  0.83117079    -0.09040
C1360       C  0.28478246  0.56752294  0.83823113     0.29840
F1361       F  0.27479342  0.57848625  0.82766293    -0.19560
H1362       H  0.26749761  0.57112415  0.86137669     0.18200
H1363       H  0.32126494  0.54008240  0.83726074     0.18210
F1364       F  0.31363786  0.53247221  0.87080878    -0.19550
C1365       C  0.26951909  0.45639359  0.98822961    -0.20980
C1366       C  0.26073551  0.47172947  0.99455448    -0.09030
C1367       C  0.25275139  0.47106821  0.01196749     0.29830
C1368       C  0.25412616  0.45562785  0.02288981    -0.20990
C1369       C  0.26318752  0.44043132  0.01665244    -0.09040
C1370       C  0.27079898  0.44093950  0.99909676     0.29840
F1371       F  0.28027284  0.42687135  0.99263369    -0.19560
H1372       H  0.27599102  0.45650823  0.97504577     0.18200
H1373       H  0.24791593  0.45550041  0.03620796     0.18210
F1374       F  0.24335250  0.48518454  0.01843541    -0.19550
C1375       C  0.30439225  0.61107671  0.01278118    -0.20980
C1376       C  0.30825681  0.60491967  0.99537941    -0.09030
C1377       C  0.32525042  0.60877954  0.98747114     0.29830
C1378       C  0.33803774  0.61885692  0.99677236    -0.20990
C1379       C  0.33418516  0.62530749  0.01411885    -0.09040
C1380       C  0.31716093  0.62132714  0.02207374     0.29840
F1381       F  0.31261390  0.62765249  0.03858007    -0.19560
H1382       H  0.29135622  0.60815713  0.01906664     0.18200
H1383       H  0.35112684  0.62125890  0.99044304     0.18210
F1384       F  0.32983559  0.60217025  0.97107375    -0.19550
C1385       C  0.30987647  0.48672372  0.31197168    -0.20980
C1386       C  0.29409128  0.49433498  0.30515527    -0.09030
C1387       C  0.28301697  0.48417620  0.29371866     0.29830
C1388       C  0.28771963  0.46671342  0.28916782    -0.20990
C1389       C  0.30326296  0.45893888  0.29625259    -0.09040
C1390       C  0.31433018  0.46898043  0.30776036     0.29840
F1391       F  0.32961801  0.46180817  0.31448605    -0.19560
H1392       H  0.31852265  0.49439672  0.32080922     0.18200
H1393       H  0.27910439  0.45915460  0.28019157     0.18210
F1394       F  0.26786893  0.49127490  0.28658049    -0.19550
C1395       C  0.71926093  0.47989137  0.28745090    -0.20980
C1396       C  0.72299765  0.47645504  0.30565379    -0.09030
C1397       C  0.72671824  0.49106597  0.31701654     0.29830
C1398       C  0.72708442  0.50871717  0.31016339    -0.20990
C1399       C  0.72412668  0.51215638  0.29179110    -0.09040
C1400       C  0.71997844  0.49754042  0.28048892     0.29840
F1401       F  0.71649335  0.50023034  0.26273974    -0.19560
H1402       H  0.71645717  0.46884339  0.27845480     0.18200
H1403       H  0.73024579  0.51966859  0.31915615     0.18210
F1404       F  0.73008489  0.48827548  0.33478370    -0.19550
C1405       C  0.68107970  0.47785100  0.70973967    -0.20980
C1406       C  0.68879084  0.46270342  0.70169528    -0.09030
C1407       C  0.70230013  0.46530422  0.68836303     0.29830
C1408       C  0.70832544  0.48274949  0.68369407    -0.20990
C1409       C  0.70089153  0.49786974  0.69207615    -0.09040
C1410       C  0.68700372  0.49525048  0.70501896     0.29840
F1411       F  0.67983466  0.50936278  0.71392075    -0.19560
H1412       H  0.67064497  0.47621835  0.72004449     0.18200
H1413       H  0.71902320  0.48442183  0.67367162     0.18210
F1414       F  0.71041275  0.45105046  0.68058030    -0.19550
C1415       C  0.29916716  0.45002338  0.71857222    -0.20980
C1416       C  0.28665918  0.44863627  0.70458858    -0.09030
C1417       C  0.28114165  0.46442238  0.69568785     0.29830
C1418       C  0.28761583  0.48124496  0.70110331    -0.20990
C1419       C  0.29969897  0.48272812  0.71549044    -0.09040
C1420       C  0.30563271  0.46684594  0.72402565     0.29840
F1421       F  0.31776412  0.46741356  0.73756003    -0.19560
H1422       H  0.30365402  0.43808736  0.72564355     0.18200
H1423       H  0.28278366  0.49312454  0.69420954     0.18210
F1424       F  0.26962127  0.46366082  0.68162486    -0.19550
C1425       C  0.85684101  0.68719008  0.38923811    -0.20980
C1426       C  0.86599032  0.69680990  0.40265956    -0.09030
C1427       C  0.85644335  0.70976281  0.41245861     0.29830
C1428       C  0.83819946  0.71277559  0.40897463    -0.20990
C1429       C  0.82896347  0.70294601  0.39573391    -0.09040
C1430       C  0.83860960  0.69014756  0.38578826     0.29840
F1431       F  0.83043559  0.67991019  0.37316930    -0.19560
H1432       H  0.86365149  0.67695683  0.38157939     0.18200
H1433       H  0.83133752  0.72292710  0.41670224     0.18210
F1434       F  0.86471133  0.71982050  0.42517260    -0.19550
C1435       C  0.16959960  0.56562309  0.32349302    -0.20980
C1436       C  0.18063613  0.57432799  0.31039139    -0.09030
C1437       C  0.17314408  0.57954816  0.29384830     0.29830
C1438       C  0.15483007  0.57603099  0.29054918    -0.20990
C1439       C  0.14393138  0.56705419  0.30358444    -0.09040
C1440       C  0.15135992  0.56210063  0.32018995     0.29840
F1441       F  0.14088210  0.55418672  0.33332093    -0.19560
H1442       H  0.17519196  0.56143886  0.33628248     0.18200
H1443       H  0.14920861  0.58000025  0.27770705     0.18210
F1444       F  0.18370083  0.58712922  0.28059179    -0.19550
C1445       C  0.01975041  0.62456579  0.34313638    -0.20980
C1446       C  0.01118619  0.61589346  0.32879294    -0.09030
C1447       C  0.99233068  0.61715959  0.32718375     0.29830
C1448       C  0.98225801  0.62633393  0.34011429    -0.20990
C1449       C  0.99076410  0.63429472  0.35489966    -0.09040
C1450       C  0.00969935  0.63365845  0.35608091     0.29840
F1451       F  0.01860884  0.64189603  0.36964452    -0.19560
H1452       H  0.03422595  0.62385247  0.34473975     0.18200
H1453       H  0.96772544  0.62675296  0.33881028     0.18210
F1454       F  0.98359438  0.60952248  0.31316462    -0.19550
C1455       C  0.83338583  0.40034036  0.32461599    -0.20980
C1456       C  0.82427159  0.38771192  0.33584258    -0.09030
C1457       C  0.83404760  0.37389327  0.34406238     0.29830
C1458       C  0.85272796  0.37302022  0.34136030    -0.20990
C1459       C  0.86196466  0.38575752  0.33022792    -0.09040
C1460       C  0.85199251  0.39931110  0.32164253     0.29840
F1461       F  0.86000190  0.41130000  0.30997213    -0.19560
H1462       H  0.82601868  0.41086695  0.31781886     0.18200
H1463       H  0.85995608  0.36250344  0.34828862     0.18210
F1464       F  0.82566758  0.36161775  0.35519458    -0.19550
C1465       C  0.99000380  0.46370472  0.29316657    -0.20980
C1466       C  0.99703038  0.44904050  0.30274154    -0.09030
C1467       C  0.01513455  0.45002526  0.30839687     0.29830
C1468       C  0.02565662  0.46556923  0.30493570    -0.20990
C1469       C  0.01841121  0.48045339  0.29584864    -0.09040
C1470       C  0.00051570  0.47917245  0.28964341     0.29840
F1471       F  0.99309538  0.49273232  0.27995530    -0.19560
H1472       H  0.97630265  0.46321572  0.28826465     0.18200
H1473       H  0.03930197  0.46615114  0.30996848     0.18210
F1474       F  0.02253092  0.43640018  0.31800380    -0.19550
C1475       C  0.14018058  0.27873805  0.41439305    -0.20980
C1476       C  0.13490018  0.26662515  0.42839314    -0.09030
C1477       C  0.14833936  0.25885525  0.43903793     0.29830
C1478       C  0.16653116  0.26341241  0.43593663    -0.20990
C1479       C  0.17175673  0.27564216  0.42208639    -0.09040
C1480       C  0.15841542  0.28319195  0.41122153     0.29840
F1481       F  0.16289381  0.29550083  0.39813651    -0.19560
H1482       H  0.13015599  0.28509484  0.40606285     0.18200
H1483       H  0.17661300  0.25728314  0.44438466     0.18210
F1484       F  0.14402040  0.24651636  0.45213228    -0.19550
C1485       C  0.98790534  0.28352776  0.37059814    -0.20980
C1486       C  0.00495277  0.28760305  0.37760262    -0.09030
C1487       C  0.01241415  0.30498964  0.37509613     0.29830
C1488       C  0.00312002  0.31793096  0.36535900    -0.20990
C1489       C  0.98621061  0.31385844  0.35795689    -0.09040
C1490       C  0.97859405  0.29650541  0.36071747     0.29840
F1491       F  0.96246678  0.29187832  0.35348447    -0.19560
H1492       H  0.98196375  0.27019195  0.37252118     0.18200
H1493       H  0.00910064  0.33128623  0.36392529     0.18210
F1494       F  0.02837832  0.30973485  0.38263925    -0.19550
C1495       C  0.82641181  0.58456950  0.70799744    -0.20980
C1496       C  0.82035879  0.57932587  0.69096375    -0.09030
C1497       C  0.83257542  0.57171795  0.67868480     0.29830
C1498       C  0.85055029  0.56916699  0.68348127    -0.20990
C1499       C  0.85652115  0.57405774  0.70061114    -0.09040
C1500       C  0.84441813  0.58191611  0.71283562     0.29840
F1501       F  0.84996957  0.58672349  0.72949922    -0.19560
H1502       H  0.81707480  0.59019521  0.71770073     0.18200
H1503       H  0.85986603  0.56347895  0.67379543     0.18210
F1504       F  0.82710613  0.56691675  0.66199085    -0.19550
C1505       C  0.16553546  0.65772374  0.60910984    -0.20980
C1506       C  0.17769688  0.66495613  0.59618688    -0.09030
C1507       C  0.17106928  0.67597859  0.58221698     0.29830
C1508       C  0.15259994  0.67937378  0.58111792    -0.20990
C1509       C  0.14037104  0.67198573  0.59392966    -0.09040
C1510       C  0.14705546  0.66104808  0.60798018     0.29840
F1511       F  0.13576668  0.65292994  0.62027618    -0.19560
H1512       H  0.17027323  0.64903043  0.61983886     0.18200
H1513       H  0.14791115  0.68804307  0.57035381     0.18210
F1514       F  0.18244065  0.68392013  0.56987100    -0.19550
C1515       C  0.02017775  0.68784182  0.50262477    -0.20980
C1516       C  0.01243168  0.69434178  0.51860119    -0.09030
C1517       C  0.99409816  0.69928846  0.51845101     0.29830
C1518       C  0.98366303  0.69667516  0.50305927    -0.20990
C1519       C  0.99122096  0.68933505  0.48736996    -0.09040
C1520       C  0.00983793  0.68548445  0.48717916     0.29840
F1521       F  0.01830759  0.67959095  0.47209087    -0.19560
H1522       H  0.03424305  0.68415925  0.50207081     0.18200
H1523       H  0.96952173  0.70010164  0.50361555     0.18210
F1524       F  0.98612737  0.70676559  0.53306334    -0.19550
C1525       C  0.98317551  0.64725437  0.67308936    -0.20980
C1526       C  0.99029724  0.63053359  0.67826701    -0.09030
C1527       C  0.00789793  0.62623771  0.67246364     0.29830
C1528       C  0.01796003  0.63839554  0.66172952    -0.20990
C1529       C  0.01061838  0.65484383  0.65623598    -0.09040
C1530       C  0.99315977  0.65925206  0.66206191     0.29840
F1531       F  0.98580064  0.67519771  0.65720482    -0.19560
H1532       H  0.96978992  0.65106499  0.67747147     0.18200
H1533       H  0.03126436  0.63456665  0.65707171     0.18210
F1534       F  0.01516573  0.60999128  0.67624291    -0.19550
C1535       C  0.13630940  0.36486791  0.71722892    -0.20980
C1536       C  0.12759785  0.38072400  0.71184515    -0.09030
C1537       C  0.13736179  0.39361951  0.70145414     0.29830
C1538       C  0.15540168  0.39069894  0.69669795    -0.20990
C1539       C  0.16425813  0.37495499  0.70224725    -0.09040
C1540       C  0.15443693  0.36199615  0.71259329     0.29840
F1541       F  0.16236266  0.34680829  0.71875395    -0.19560
H1542       H  0.12913657  0.35473413  0.72531398     0.18200
H1543       H  0.16237325  0.40082268  0.68845252     0.18210
F1544       F  0.12937708  0.40878823  0.69529875    -0.19550
C1545       C  0.98412413  0.46313769  0.73234487    -0.20980
C1546       C  0.00283103  0.46369724  0.72857328    -0.09030
C1547       C  0.01112308  0.48056008  0.72485653     0.29830
C1548       C  0.00083460  0.49620466  0.72437394    -0.20990
C1549       C  0.98202722  0.49558825  0.72761497    -0.09040
C1550       C  0.97383372  0.47879066  0.73188560     0.29840
F1551       F  0.95592617  0.47733774  0.73582172    -0.19560
H1552       H  0.97729145  0.45051326  0.73568703     0.18200
H1553       H  0.00771946  0.50876503  0.72094320     0.18210
F1554       F  0.02903625  0.48203949  0.72096572    -0.19550
C1555       C  0.84219699  0.26326689  0.59635583    -0.20980
C1556       C  0.85292263  0.26857296  0.61091637    -0.09030
C1557       C  0.84455141  0.27768347  0.62535784     0.29830
C1558       C  0.82609589  0.28141044  0.62501109    -0.20990
C1559       C  0.81559068  0.27649436  0.61024121    -0.09040
C1560       C  0.82379053  0.26716948  0.59596168     0.29840
F1561       F  0.81399023  0.26143640  0.58174115    -0.19560
H1562       H  0.84799456  0.25598261  0.58520044     0.18200
H1563       H  0.82013624  0.28871512  0.63609205     0.18210
F1564       F  0.85411987  0.28370974  0.63958182    -0.19550
C1565       C  0.97797900  0.23420574  0.52525961    -0.20980
C1566       C  0.98550582  0.24031044  0.54139289    -0.09030
C1567       C  0.00421733  0.24439934  0.54153890     0.29830
C1568       C  0.01476621  0.24301737  0.52582428    -0.20990
C1569       C  0.00710610  0.23754531  0.50952908    -0.09040
C1570       C  0.98856032  0.23270540  0.50957351     0.29840
F1571       F  0.98047219  0.22634017  0.49459184    -0.19560
H1572       H  0.96379763  0.23051906  0.52470669     0.18200
H1573       H  0.02890224  0.24684266  0.52639188     0.18210
F1574       F  0.01242409  0.25050023  0.55655427    -0.19550
C1575       C  0.96980277  0.30871091  0.68301299    -0.20980
C1576       C  0.97964857  0.29566975  0.67366808    -0.09030
C1577       C  0.99852025  0.29532391  0.67568656     0.29830
C1578       C  0.00729701  0.30829734  0.68602253    -0.20990
C1579       C  0.99752686  0.32181323  0.69474066    -0.09040
C1580       C  0.97856198  0.32157772  0.69349532     0.29840
F1581       F  0.96834101  0.33368153  0.70239504    -0.19560
H1582       H  0.95527840  0.30933161  0.68192838     0.18200
H1583       H  0.02185770  0.30791726  0.68677262     0.18210
F1584       F  0.00861749  0.28247183  0.66777011    -0.19550
C1585       C  0.52585550  0.67408801  0.27394882    -0.20980
C1586       C  0.52905276  0.69271493  0.27526186    -0.09030
C1587       C  0.51420650  0.70407830  0.27820701     0.29830
C1588       C  0.49662088  0.69686750  0.27941459    -0.20990
C1589       C  0.49348875  0.67833820  0.27740116    -0.09040
C1590       C  0.50827990  0.66696808  0.27485284     0.29840
F1591       F  0.50572366  0.64892101  0.27316276    -0.19560
H1592       H  0.53693559  0.66501559  0.27171275     0.18200
H1593       H  0.48538454  0.70585315  0.28125776     0.18210
F1594       F  0.51656232  0.72211981  0.28005180    -0.19550
C1595       C  0.50329480  0.30168091  0.29380929    -0.20980
C1596       C  0.51834906  0.29140970  0.29844753    -0.09030
C1597       C  0.51579195  0.27581027  0.30916637     0.29830
C1598       C  0.49846932  0.27050595  0.31487596    -0.20990
C1599       C  0.48329503  0.28053264  0.30999775    -0.09040
C1600       C  0.48589826  0.29640299  0.29961459     0.29840
F1601       F  0.47167228  0.30637606  0.29434037    -0.19560
H1602       H  0.50499843  0.31373440  0.28551714     0.18200
H1603       H  0.49695345  0.25829415  0.32294299     0.18210
F1604       F  0.52986286  0.26508828  0.31331123    -0.19550
C1605       C  0.28962201  0.25230183  0.51970586    -0.20980
C1606       C  0.29998502  0.26314840  0.53113917    -0.09030
C1607       C  0.30525082  0.28061320  0.52538608     0.29830
C1608       C  0.30021075  0.28704109  0.50837910    -0.20990
C1609       C  0.28955835  0.27627062  0.49721010    -0.09040
C1610       C  0.28423842  0.25888010  0.50295442     0.29840
F1611       F  0.27377899  0.24831426  0.49236135    -0.19560
H1612       H  0.28529055  0.23887034  0.52394163     0.18200
H1613       H  0.30427213  0.30053108  0.50407574     0.18210
F1614       F  0.31546539  0.29130853  0.53605755    -0.19550
C1615       C  0.31116751  0.68335729  0.51801613    -0.20980
C1616       C  0.29880045  0.66891373  0.51987841    -0.09030
C1617       C  0.29235771  0.66045405  0.50429750     0.29830
C1618       C  0.29771414  0.66677916  0.48720002    -0.20990
C1619       C  0.30937945  0.68178724  0.48528099    -0.09040
C1620       C  0.31633418  0.68986999  0.50087792     0.29840
F1621       F  0.32808290  0.70407329  0.49961971    -0.19560
H1622       H  0.31629449  0.69006344  0.52982530     0.18200
H1623       H  0.29218138  0.66029633  0.47545429     0.18210
F1624       F  0.28078090  0.64610646  0.50555974    -0.19550
C1625       C  0.49959512  0.26214534  0.71872504    -0.20980
C1626       C  0.50431807  0.26724789  0.70101919    -0.09030
C1627       C  0.49210289  0.27684325  0.69046137     0.29830
C1628       C  0.47517852  0.28121423  0.69762332    -0.20990
C1629       C  0.47045341  0.27625813  0.71544861    -0.09040
C1630       C  0.48282553  0.26664730  0.72597184     0.29840
F1631       F  0.47848325  0.26095272  0.74298929    -0.19560
H1632       H  0.50887485  0.25448924  0.72686895     0.18200
H1633       H  0.46583174  0.28860148  0.68932886     0.18210
F1634       F  0.49646371  0.28172511  0.67321566    -0.19550
C1635       C  0.69686535  0.69378025  0.47682774    -0.20980
C1636       C  0.70850198  0.70797296  0.47110736    -0.09030
C1637       C  0.71393862  0.72092624  0.48371510     0.29830
C1638       C  0.70759062  0.71983500  0.50151299    -0.20990
C1639       C  0.69598256  0.70570485  0.50722439    -0.09040
C1640       C  0.69075790  0.69254533  0.49482403     0.29840
F1641       F  0.67914164  0.67902521  0.49990658    -0.19560
H1642       H  0.69257512  0.68361255  0.46739034     0.18200
H1643       H  0.71149267  0.73027285  0.51084163     0.18210
F1644       F  0.72476777  0.73511409  0.47870451    -0.19550
C1645       C  0.70739106  0.29083922  0.49083654    -0.20980
C1646       C  0.69424485  0.27749414  0.48754447    -0.09030
C1647       C  0.68517407  0.26909106  0.50230820     0.29830
C1648       C  0.68968391  0.27352880  0.51994201    -0.20990
C1649       C  0.70339176  0.28627760  0.52324440    -0.09040
C1650       C  0.71202195  0.29515693  0.50850543     0.29840
F1651       F  0.72491657  0.30802642  0.51112207    -0.19560
H1652       H  0.71452935  0.29754392  0.47973427     0.18200
H1653       H  0.68280963  0.26651829  0.53102205     0.18210
F1654       F  0.67190871  0.25658049  0.49978224    -0.19550
C1655       C  0.48611230  0.67258231  0.68757580    -0.20980
C1656       C  0.47727740  0.68610153  0.69718289    -0.09030
C1657       C  0.48643183  0.69523888  0.71088209     0.29830
C1658       C  0.50408097  0.69076108  0.71501359    -0.20990
C1659       C  0.51303362  0.67739284  0.70534776    -0.09040
C1660       C  0.50404478  0.66839958  0.69145380     0.29840
F1661       F  0.51236052  0.65520464  0.68213871    -0.19560
H1662       H  0.47919715  0.66546508  0.67696760     0.18200
H1663       H  0.51080563  0.69777687  0.72581930     0.18210
F1664       F  0.47812477  0.70811905  0.72066993    -0.19550
C1665       C  0.40390786  0.80694505  0.69965985    -0.20980
C1666       C  0.38868042  0.79593344  0.70376701    -0.09030
C1667       C  0.37375187  0.80371758  0.71248580     0.29830
C1668       C  0.37422636  0.82199713  0.71696097    -0.20990
C1669       C  0.38961614  0.83279147  0.71312035    -0.09040
C1670       C  0.40445790  0.82508637  0.70435824     0.29840
F1671       F  0.41927128  0.83520054  0.69968274    -0.19560
H1672       H  0.41548739  0.80162614  0.69260109     0.18200
H1673       H  0.36262006  0.82767227  0.72372176     0.18210
F1674       F  0.35889581  0.79370634  0.71718436    -0.19550
C1675       C  0.30835641  0.11358959  0.59735458    -0.20980
C1676       C  0.29039068  0.10772089  0.59979200    -0.09030
C1677       C  0.27749748  0.11974093  0.60637516     0.29830
C1678       C  0.28254376  0.13752009  0.61029554    -0.20990
C1679       C  0.30048268  0.14345425  0.60763726    -0.09040
C1680       C  0.31338506  0.13136435  0.60118689     0.29840
F1681       F  0.33087970  0.13673910  0.59880918    -0.19560
H1682       H  0.31850819  0.10432542  0.59269334     0.18200
H1683       H  0.27238421  0.14678941  0.61492518     0.18210
F1684       F  0.26001596  0.11432325  0.60873860    -0.19550
C1685       C  0.30385287  0.96138916  0.66384878    -0.20980
C1686       C  0.30890396  0.97901425  0.65871528    -0.09030
C1687       C  0.32397319  0.98719628  0.66672669     0.29830
C1688       C  0.33387599  0.97778678  0.67952264    -0.20990
C1689       C  0.32896107  0.96005727  0.68472748    -0.09040
C1690       C  0.31360259  0.95202060  0.67687737     0.29840
F1691       F  0.30772624  0.93526379  0.68186170    -0.19560
H1692       H  0.29217988  0.95493527  0.65790257     0.18200
H1693       H  0.34568630  0.98438274  0.68495895     0.18210
F1694       F  0.32970575  0.00398692  0.66160337    -0.19550
C1695       C  0.67224054  0.83298587  0.61198566    -0.20980
C1696       C  0.66887856  0.84351941  0.59654334    -0.09030
C1697       C  0.66244821  0.83501043  0.58103545     0.29830
C1698       C  0.65970290  0.81635485  0.58098147    -0.20990
C1699       C  0.66351035  0.80564524  0.59625494    -0.09040
C1700       C  0.66970294  0.81427063  0.61189239     0.29840
F1701       F  0.67387776  0.80478228  0.62697628    -0.19560
H1702       H  0.67724721  0.83920720  0.62410415     0.18200
H1703       H  0.65452443  0.81036906  0.56884191     0.18210
F1704       F  0.65830845  0.84469475  0.56603893    -0.19550
C1705       C  0.56048894  0.12244627  0.70309665    -0.20980
C1706       C  0.57314284  0.11434093  0.71435531    -0.09030
C1707       C  0.58860457  0.12438434  0.71924538     0.29830
C1708       C  0.59113360  0.14221371  0.71311752    -0.20990
C1709       C  0.57838948  0.15040668  0.70193368    -0.09040
C1710       C  0.56311833  0.14014020  0.69675783     0.29840
F1711       F  0.55088028  0.14688827  0.68513177    -0.19560
H1712       H  0.54871383  0.11490205  0.69877169     0.18200
H1713       H  0.60292134  0.14970661  0.71746403     0.18210
F1714       F  0.60104846  0.11719785  0.73039398    -0.19550
C1715       C  0.49217596  0.96814368  0.74242119    -0.20980
C1716       C  0.49068733  0.98705745  0.74233126    -0.09030
C1717       C  0.47323575  0.99430189  0.74261248     0.29830
C1718       C  0.45793483  0.98293674  0.74225493    -0.20990
C1719       C  0.45947825  0.96402280  0.74166299    -0.09040
C1720       C  0.47693743  0.95680533  0.74215808     0.29840
F1721       F  0.47963712  0.93879783  0.74219523    -0.19560
H1722       H  0.50514750  0.96181360  0.74238902     0.18200
H1723       H  0.44489208  0.98917285  0.74229158     0.18210
F1724       F  0.47072273  0.01233006  0.74325965    -0.19550
C1725       C  0.63371709  0.95764043  0.68070616    -0.20980
C1726       C  0.64517989  0.96756826  0.66888468    -0.09030
C1727       C  0.64732760  0.98621273  0.67150213     0.29830
C1728       C  0.63747040  0.99477226  0.68496067    -0.20990
C1729       C  0.62534362  0.98502712  0.69630785    -0.09040
C1730       C  0.62398308  0.96617530  0.69433137     0.29840
F1731       F  0.61331042  0.95582217  0.70544082    -0.19560
H1732       H  0.63189001  0.94324902  0.67921302     0.18200
H1733       H  0.63919875  0.00918508  0.68610951     0.18210
F1734       F  0.65902430  0.99631068  0.66120037    -0.19550
C1735       C  0.39422993  0.12897066  0.31847681    -0.20980
C1736       C  0.40796118  0.12298248  0.30678536    -0.09030
C1737       C  0.41997923  0.13574444  0.29889438     0.29830
C1738       C  0.41844668  0.15398392  0.30292840    -0.20990
C1739       C  0.40490113  0.15993409  0.31482587    -0.09040
C1740       C  0.39267208  0.14724284  0.32247237     0.29840
F1741       F  0.37968784  0.15232094  0.33436835    -0.19560
H1742       H  0.38486871  0.11945985  0.32490467     0.18200
H1743       H  0.42784982  0.16350125  0.29656240     0.18210
F1744       F  0.43293479  0.13074921  0.28693224    -0.19550
C1745       C  0.29307099  0.82605100  0.41680023    -0.20980
C1746       C  0.30273491  0.83842067  0.40576547    -0.09030
C1747       C  0.31526093  0.83185923  0.39300782     0.29830
C1748       C  0.31808080  0.81331695  0.39156837    -0.20990
C1749       C  0.30870675  0.80104954  0.40294071    -0.09040
C1750       C  0.29594548  0.80757255  0.41540004     0.29840
F1751       F  0.28600230  0.79606523  0.42607348    -0.19560
H1752       H  0.28313098  0.83066930  0.42646023     0.18200
H1753       H  0.32810615  0.80859179  0.38204224     0.18210
F1754       F  0.32543100  0.84330846  0.38249728    -0.19550
C1755       C  0.26901911  0.97982122  0.48592024    -0.20980
C1756       C  0.27567413  0.96215861  0.48590752    -0.09030
C1757       C  0.28129173  0.95453989  0.50233930     0.29830
C1758       C  0.28051112  0.96448121  0.51821267    -0.20990
C1759       C  0.27415292  0.98225093  0.51820162    -0.09040
C1760       C  0.26822218  0.98977396  0.50183467     0.29840
F1761       F  0.26135417  0.00659727  0.50116281    -0.19560
H1762       H  0.26434831  0.98599488  0.47355841     0.18200
H1763       H  0.28541517  0.95830822  0.53046636     0.18210
F1764       F  0.28833943  0.93779980  0.50307372    -0.19550
C1765       C  0.35220553  0.97315687  0.32927278    -0.20980
C1766       C  0.34761691  0.99091576  0.32465181    -0.09030
C1767       C  0.33145596  0.99794341  0.33175002     0.29830
C1768       C  0.32063160  0.98760145  0.34364828    -0.20990
C1769       C  0.32545240  0.97001190  0.34839610    -0.09040
C1770       C  0.34128591  0.96278977  0.34097796     0.29840
F1771       F  0.34681489  0.94606676  0.34574735    -0.19560
H1772       H  0.36458013  0.96732849  0.32435209     0.18200
H1773       H  0.30838179  0.99332072  0.34909553     0.18210
F1774       F  0.32590656  0.01469247  0.32717685    -0.19550
C1775       C  0.68622908  0.15083590  0.39546608    -0.20980
C1776       C  0.69418406  0.16307570  0.40732017    -0.09030
C1777       C  0.70448405  0.15642572  0.42172411     0.29830
C1778       C  0.70613617  0.13789393  0.42459243    -0.20990
C1779       C  0.69770122  0.12556854  0.41313138    -0.09040
C1780       C  0.68783405  0.13223718  0.39835944     0.29840
F1781       F  0.67892169  0.12089403  0.38722856    -0.19560
H1782       H  0.67808230  0.15565760  0.38443473     0.18200
H1783       H  0.71410451  0.13319297  0.43580059     0.18210
F1784       F  0.71310103  0.16785212  0.43301540    -0.19550
C1785       C  0.71175691  0.98296262  0.50167899    -0.20980
C1786       C  0.70508199  0.00060377  0.50091542    -0.09030
C1787       C  0.69509616  0.00689159  0.51576994     0.29830
C1788       C  0.69145406  0.99553615  0.53066009    -0.20990
C1789       C  0.69762567  0.97769150  0.53112071    -0.09040
C1790       C  0.70808161  0.97161439  0.51651375     0.29840
F1791       F  0.71502983  0.95481739  0.51655249    -0.19560
H1792       H  0.71983586  0.97780357  0.49068703     0.18200
H1793       H  0.68329901  0.00064105  0.54161948     0.18210
F1794       F  0.68810203  0.02366358  0.51568874    -0.19550
C1795       C  0.61144463  0.84419717  0.27358189    -0.20980
C1796       C  0.59716951  0.84873493  0.28524836    -0.09030
C1797       C  0.58670446  0.83502315  0.29362901     0.29830
C1798       C  0.59031916  0.81698453  0.29013724    -0.20990
C1799       C  0.60451057  0.81241959  0.27840269    -0.09040
C1800       C  0.61504355  0.82611400  0.27005438     0.29840
F1801       F  0.62837107  0.82200251  0.25811921    -0.19560
H1802       H  0.61966411  0.85468509  0.26709152     0.18200
H1803       H  0.58214257  0.80652188  0.29672298     0.18210
F1804       F  0.57346215  0.83908138  0.30567966    -0.19550
C1805       C  0.51431403  0.99148529  0.29806159    -0.20980
C1806       C  0.51538839  0.97474231  0.28943582    -0.09030
C1807       C  0.50066830  0.96892410  0.27905064     0.29830
C1808       C  0.48533598  0.97961745  0.27749569    -0.20990
C1809       C  0.48435976  0.99635516  0.28610031    -0.09040
C1810       C  0.49906485  0.00218320  0.29643052     0.29840
F1811       F  0.49850178  0.01784302  0.30563980    -0.19560
H1812       H  0.52516109  0.99628306  0.30645672     0.18200
H1813       H  0.47423978  0.97483843  0.26938121     0.18210
F1814       F  0.50113508  0.95315013  0.27004450    -0.19550
C1815       C  0.65710984  0.98711507  0.33845267    -0.20980
C1816       C  0.64872171  0.97157647  0.34574665    -0.09030
C1817       C  0.65337632  0.96544221  0.36301957     0.29830
C1818       C  0.66592477  0.97513752  0.37307659    -0.20990
C1819       C  0.67412234  0.99098574  0.36597721    -0.09040
C1820       C  0.66990700  0.99663587  0.34833522     0.29840
F1821       F  0.67820169  0.01125128  0.34052419    -0.19560
H1822       H  0.65381293  0.99180865  0.32501102     0.18200
H1823       H  0.66869231  0.97052600  0.38665276     0.18210
F1824       F  0.64509312  0.95064695  0.37052990    -0.19550
loop_ 
_geom_bond_atom_site_label_1 
_geom_bond_atom_site_label_2 
_geom_bond_distance 
_geom_bond_site_symmetry_2 
_ccdc_geom_bond_type 
C1            C2   1.406       .  A
C1            C6   1.407       .  A
C1          C317   1.484       .  S
C2            C3   1.403       .  A
C2            H7   1.083       .  S
C3            C4   1.400       .  A
C3         C1061   1.479       .  S
C4            C5   1.406       .  A
C4            H8   1.084       .  S
C5            C6   1.408       .  A
C5          C725   1.475       .  S
C6            H9   1.083       .  S
C10          C11   1.409       .  A
C10          C15   1.404       .  A
C10         C749   1.480       .  S
C11          C12   1.405       .  A
C11          H16   1.084       .  S
C12          C13   1.402       .  A
C12         C413   1.477       .  S
C13          C14   1.401       .  A
C13          H17   1.084       .  S
C14          C15   1.404       .  A
C14        C1133   1.471       .  S
C15          H18   1.084       .  S
C19          C20   1.408       .  A
C19          C24   1.404       .  A
C19         C341   1.480       .  S
C20          C21   1.406       .  A
C20          H25   1.084       .  S
C21          C22   1.404       .  A
C21        C1037   1.481       .  S
C22          C23   1.403       .  A
C22          H26   1.084       .  S
C23          C24   1.404       .  A
C23         C773   1.474       .  S
C24          H27   1.084       .  S
C28          C29   1.403       .  A
C28          C33   1.406       .  A
C28         C389   1.477       .  S
C29          C30   1.406       .  A
C29          H34   1.084       .  S
C30          C31   1.403       .  A
C30        C1181   1.478       .  S
C31          C32   1.406       .  A
C31          H35   1.084       .  S
C32          C33   1.404       .  A
C32         C701   1.478       .  S
C33          H36   1.084       .  S
C37          C38   1.404       .  A
C37          C42   1.408       .  A
C37        C1157   1.479       .  S
C38          C39   1.403       .  A
C38          H43   1.084       .  S
C39          C40   1.401       .  A
C39         C269   1.471       .  S
C40          C41   1.402       .  A
C40          H44   1.084       .  S
C41          C42   1.406       .  A
C41         C677   1.478       .  S
C42          H45   1.084       .  S
C46          C47   1.408       .  A
C46          C51   1.407       .  A
C46         C797   1.485       .  S
C47          C48   1.403       .  A
C47          H52   1.083       .  S
C48          C49   1.402       .  A
C48         C293   1.482       .  S
C49          C50   1.407       .  A
C49          H53   1.084       .  S
C50          C51   1.407       .  A
C50        C1205   1.477       .  S
C51          H54   1.083       .  S
C55          C56   1.402       .  A
C55          C60   1.402       .  A
C55         C821   1.479       .  S
C56          C57   1.407       .  A
C56          H61   1.084       .  S
C57          C58   1.407       .  A
C57         C365   1.476       .  S
C58          C59   1.406       .  A
C58          H62   1.083       .  S
C59          C60   1.407       .  A
C59        C1109   1.483       .  S
C60          H63   1.083       .  S
N64          N65   1.322       .  A
N64          C68   1.349       .  A
N64         Cu72   2.095       .  S
N65          C66   1.340       .  A
N65         Cu71   2.060       .  S
C66          C67   1.384       .  A
C66          H69   1.081       .  S
C67          C68   1.393       .  A
C67        C1806   1.489       .  S
C68          H70   1.081       .  S
Cu71         N74   2.059       .  S
Cu72         N82   2.095       .  S
Cu73         N75   2.052       .  S
Cu73         N81   2.053       .  S
N74          N75   1.319       .  A
N74          C78   1.342       .  A
N75          C76   1.343       .  A
C76          C77   1.380       .  A
C76          H79   1.082       .  S
C77          C78   1.381       .  A
C77        C1816   1.465       .  S
C78          H80   1.082       .  S
N81          N82   1.324       .  A
N81          C85   1.341       .  A
N82          C83   1.348       .  A
C83          C84   1.386       .  A
C83          H86   1.082       .  S
C84          C85   1.375       .  A
C84        C1796   1.469       .  S
C85          H87   1.082       .  S
N88          N89   1.322       .  A
N88          C92   1.351       .  A
N88         Cu96   2.102       .  S
N89          C90   1.338       .  A
N89         Cu95   2.054       .  S
C90          C91   1.381       .  A
C90          H93   1.081   1_545  S
C91          C92   1.395       .  A
C91        C1786   1.487       .  S
C92          H94   1.080       .  S
Cu95         N98   2.053       .  S
Cu96        N106   2.103       .  S
Cu97         N99   2.052       .  S
Cu97        N105   2.053       .  S
N98          N99   1.317       .  A
N98         C102   1.342   1_545  A
N99         C100   1.340       .  A
C100        C101   1.386       .  A
C100        H103   1.081       .  S
C101        C102   1.387   1_545  A
C101       C1819   1.479   1_545  S
C102        H104   1.081       .  S
N105        N106   1.322       .  A
N105        C109   1.341       .  A
N106        C107   1.349       .  A
C107        C108   1.393       .  A
C107        H110   1.082       .  S
C108        C109   1.380       .  A
C108       C1779   1.485       .  S
C109        H111   1.081       .  S
N112        N113   1.323       .  A
N112        C116   1.348       .  A
N112       Cu120   2.098       .  S
N113        C114   1.343       .  A
N113       Cu119   2.067       .  S
C114        C115   1.383       .  A
C114        H117   1.082       .  S
C115        C116   1.392       .  A
C115       C1756   1.488       .  S
C116        H118   1.081       .  S
Cu119       N122   2.066       .  S
Cu120       N130   2.097       .  S
Cu121       N123   2.048       .  S
Cu121       N129   2.049       .  S
N122        N123   1.319       .  A
N122        C126   1.344       .  A
N123        C124   1.340       .  A
C124        C125   1.381       .  A
C124        H127   1.081       .  S
C125        C126   1.385       .  A
C125       C1769   1.472       .  S
C126        H128   1.082       .  S
N129        N130   1.321       .  A
N129        C133   1.341       .  A
N130        C131   1.348       .  A
C131        C132   1.392       .  A
C131        H134   1.082       .  S
C132        C133   1.381       .  A
C132       C1746   1.483       .  S
C133        H135   1.081       .  S
N136        N137   1.323       .  A
N136        C140   1.347       .  A
N136       Cu144   2.091       .  S
N137        C138   1.343       .  A
N137       Cu143   2.065       .  S
C138        C139   1.382       .  A
C138        H141   1.082   1_545  S
C139        C140   1.390       .  A
C139       C1809   1.484   1_545  S
C140        H142   1.081       .  S
Cu143       N146   2.064       .  S
Cu144       N154   2.091       .  S
Cu145       N147   2.049       .  S
Cu145       N153   2.049       .  S
N146        N147   1.318       .  A
N146        C150   1.342   1_545  A
N147        C148   1.341       .  A
C148        C149   1.386       .  A
C148        H151   1.080       .  S
C149        C150   1.390   1_545  A
C149       C1766   1.483   1_545  S
C150        H152   1.081       .  S
N153        N154   1.321       .  A
N153        C157   1.340       .  A
N154        C155   1.348       .  A
C155        C156   1.392       .  A
C155        H158   1.081       .  S
C156        C157   1.381       .  A
C156       C1736   1.482       .  S
C157        H159   1.081       .  S
N160        N161   1.320       .  A
N160        C164   1.352       .  A
N160       Cu168   2.107       .  S
N161        C162   1.338   1_545  A
N161       Cu167   2.051       .  S
C162        C163   1.385       .  A
C162        H165   1.078       .  S
C163        C164   1.400   1_565  A
C163       C1716   1.497       .  S
C164        H166   1.078       .  S
Cu167       N170   2.051       .  S
Cu168       N178   2.108       .  S
Cu169       N171   2.060       .  S
Cu169       N177   2.061       .  S
N170        N171   1.316       .  A
N170        C174   1.342   1_545  A
N171        C172   1.342       .  A
C172        C173   1.391   1_545  A
C172        H175   1.080       .  S
C173        C174   1.389       .  A
C173       C1729   1.488       .  S
C174        H176   1.079       .  S
N177        N178   1.324       .  A
N177        C181   1.342       .  A
N178        C179   1.350       .  A
C179        C180   1.392       .  A
C179        H182   1.082       .  S
C180        C181   1.380       .  A
C180       C1706   1.485       .  S
C181        H183   1.081       .  S
N184        N185   1.321       .  A
N184        C188   1.347       .  A
N184       Cu192   2.088       .  S
N185        C186   1.341       .  A
N185       Cu191   2.057       .  S
C186        C187   1.383       .  A
C186        H189   1.081       .  S
C187        C188   1.392       .  A
C187       C1789   1.486       .  S
C188        H190   1.080       .  S
Cu191       N194   2.057       .  S
Cu192       N202   2.088       .  S
Cu193       N195   2.062       .  S
Cu193       N201   2.063       .  S
N194        N195   1.318       .  A
N194        C198   1.341       .  A
N195        C196   1.344       .  A
C196        C197   1.388       .  A
C196        H199   1.081       .  S
C197        C198   1.386       .  A
C197       C1726   1.482       .  S
C198        H200   1.080       .  S
N201        N202   1.323       .  A
N201        C205   1.342       .  A
N202        C203   1.347       .  A
C203        C204   1.389       .  A
C203        H206   1.081       .  S
C204        C205   1.381       .  A
C204       C1696   1.480       .  S
C205        H207   1.082       .  S
N208        N209   1.323       .  A
N208        C212   1.350       .  A
N208       Cu216   2.100       .  S
N209        C210   1.341       .  A
N209       Cu215   2.054       .  S
C210        C211   1.375       .  A
C210        H213   1.082       .  S
C211        C212   1.388       .  A
C211       C1676   1.470       .  S
C212        H214   1.082       .  S
Cu215       N218   2.054       .  S
Cu216       N226   2.101       .  S
Cu217       N219   2.064       .  S
Cu217       N225   2.066       .  S
N218        N219   1.319   1_545  A
N218        C222   1.341       .  A
N219        C220   1.345       .  A
C220        C221   1.385       .  A
C220        H223   1.082       .  S
C221        C222   1.382   1_565  A
C221       C1686   1.473       .  S
C222        H224   1.081       .  S
N225        N226   1.323   1_565  A
N225        C229   1.341       .  A
N226        C227   1.350       .  A
C227        C228   1.393   1_545  A
C227        H230   1.081       .  S
C228        C229   1.383       .  A
C228       C1759   1.489       .  S
C229        H231   1.081       .  S
N232        N233   1.320       .  A
N232        C236   1.347       .  A
N232       Cu240   2.094       .  S
N233        C234   1.342       .  A
N233       Cu239   2.063       .  S
C234        C235   1.388       .  A
C234        H237   1.079       .  S
C235        C236   1.397       .  A
C235       C1719   1.498       .  S
C236        H238   1.077       .  S
Cu239       N242   2.062       .  S
Cu240       N250   2.093       .  S
Cu241       N243   2.057       .  S
Cu241       N249   2.057       .  S
N242        N243   1.318       .  A
N242        C246   1.342       .  A
N243        C244   1.342       .  A
C244        C245   1.388       .  A
C244        H247   1.080       .  S
C245        C246   1.389       .  A
C245       C1689   1.486       .  S
C246        H248   1.081       .  S
N249        N250   1.322       .  A
N249        C253   1.342       .  A
N250        C251   1.348       .  A
C251        C252   1.390       .  A
C251        H254   1.081       .  S
C252        C253   1.380       .  A
C252       C1669   1.479       .  S
C253        H255   1.082       .  S
N256        N257   1.319       .  A
N256        C260   1.338       .  A
N256       Cu264   2.044       .  S
N257        C258   1.348       .  A
N257       Cu263   2.075       .  S
C258        C259   1.386       .  A
C258        H261   1.082       .  S
C259        C260   1.378       .  A
C259       C1656   1.469       .  S
C260        H262   1.082       .  S
Cu263       N266   2.077       .  S
Cu264       N274   2.044       .  S
Cu265       N267   2.092       .  S
Cu265       N273   2.090       .  S
N266        N267   1.326       .  A
N266        C270   1.345       .  A
N267        C268   1.347       .  A
C268        C269   1.383       .  A
C268        H271   1.082       .  S
C269        C270   1.379       .  A
C270        H272   1.082       .  S
N273        N274   1.318       .  A
N273        C277   1.350       .  A
N274        C275   1.337       .  A
C275        C276   1.383       .  A
C275        H278   1.081       .  S
C276        C277   1.396       .  A
C276       C1666   1.488       .  S
C277        H279   1.080       .  S
N280        N281   1.320       .  A
N280        C284   1.337       .  A
N280       Cu288   2.040       .  S
N281        C282   1.353       .  A
N281       Cu287   2.103       .  S
C282        C283   1.394       .  A
C282        H285   1.082       .  S
C283        C284   1.376       .  A
C283       C1776   1.480       .  S
C284        H286   1.082       .  S
Cu287       N290   2.106       .  S
Cu288       N298   2.040       .  S
Cu289       N291   2.081       .  S
Cu289       N297   2.078       .  S
N290        N291   1.327       .  A
N290        C294   1.351       .  A
N291        C292   1.344       .  A
C292        C293   1.381       .  A
C292        H295   1.082       .  S
C293        C294   1.388       .  A
C294        H296   1.082       .  S
N297        N298   1.317       .  A
N297        C301   1.348       .  A
N298        C299   1.339       .  A
C299        C300   1.382       .  A
C299        H302   1.081       .  S
C300        C301   1.391       .  A
C300       C1646   1.479       .  S
C301        H303   1.082       .  S
N304        N305   1.316       .  A
N304        C308   1.339       .  A
N304       Cu312   2.045       .  S
N305        C306   1.347       .  A
N305       Cu311   2.074       .  S
C306        C307   1.395       .  A
C306        H309   1.079       .  S
C307        C308   1.386       .  A
C307       C1699   1.490       .  S
C308        H310   1.081       .  S
Cu311       N314   2.076       .  S
Cu312       N322   2.045       .  S
Cu313       N315   2.108       .  S
Cu313       N321   2.106       .  S
N314        N315   1.326       .  A
N314        C318   1.342       .  A
N315        C316   1.352       .  A
C316        C317   1.390       .  A
C316        H319   1.082       .  S
C317        C318   1.381       .  A
C318        H320   1.082       .  S
N321        N322   1.322       .  A
N321        C325   1.354       .  A
N322        C323   1.338       .  A
C323        C324   1.374       .  A
C323        H326   1.082       .  S
C324        C325   1.391       .  A
C324       C1639   1.474       .  S
C325        H327   1.082       .  S
N328        N329   1.319       .  A
N328        C332   1.341       .  A
N328       Cu336   2.050       .  S
N329        C330   1.345       .  A
N329       Cu335   2.066       .  S
C330        C331   1.383       .  A
C330        H333   1.082       .  S
C331        C332   1.379       .  A
C331       C1626   1.462       .  S
C332        H334   1.082       .  S
Cu335       N338   2.068       .  S
Cu336       N346   2.050       .  S
Cu337       N339   2.110       .  S
Cu337       N345   2.108       .  S
N338        N339   1.325       .  A
N338        C342   1.343       .  A
N339        C340   1.351       .  A
C340        C341   1.390       .  A
C340        H343   1.082       .  S
C341        C342   1.379       .  A
C342        H344   1.082       .  S
N345        N346   1.321       .  A
N345        C349   1.353       .  A
N346        C347   1.339       .  A
C347        C348   1.382       .  A
C347        H350   1.080       .  S
C348        C349   1.397       .  A
C348       C1709   1.491       .  S
C349        H351   1.081       .  S
N352        N353   1.322       .  A
N352        C356   1.338       .  A
N352       Cu360   2.049       .  S
N353        C354   1.351       .  A
N353       Cu359   2.097       .  S
C354        C355   1.391       .  A
C354        H357   1.082       .  S
C355        C356   1.378       .  A
C355       C1749   1.478       .  S
C356        H358   1.082       .  S
Cu359       N362   2.098       .  S
Cu360       N370   2.049       .  S
Cu361       N363   2.075       .  S
Cu361       N369   2.074       .  S
N362        N363   1.325       .  A
N362        C366   1.350       .  A
N363        C364   1.343       .  A
C364        C365   1.380       .  A
C364        H367   1.082       .  S
C365        C366   1.386       .  A
C366        H368   1.082       .  S
N369        N370   1.318       .  A
N369        C373   1.345       .  A
N370        C371   1.341       .  A
C371        C372   1.383       .  A
C371        H374   1.081       .  S
C372        C373   1.389       .  A
C372       C1619   1.479       .  S
C373        H375   1.082       .  S
N376        N377   1.322       .  A
N376        C380   1.341       .  A
N376       Cu384   2.053       .  S
N377        C378   1.351       .  A
N377       Cu383   2.096       .  S
C378        C379   1.388       .  A
C378        H381   1.082       .  S
C379        C380   1.376       .  A
C379       C1679   1.472       .  S
C380        H382   1.082       .  S
Cu383       N386   2.097       .  S
Cu384       N394   2.054       .  S
Cu385       N387   2.073       .  S
Cu385       N393   2.072       .  S
N386        N387   1.325       .  A
N386        C390   1.349       .  A
N387        C388   1.344       .  A
C388        C389   1.380       .  A
C388        H391   1.082       .  S
C389        C390   1.387       .  A
C390        H392   1.082       .  S
N393        N394   1.320       .  A
N393        C397   1.346       .  A
N394        C395   1.341       .  A
C395        C396   1.381       .  A
C395        H398   1.082       .  S
C396        C397   1.386       .  A
C396       C1606   1.473       .  S
C397        H399   1.082       .  S
N400        N401   1.319       .  A
N400        C404   1.338       .  A
N400       Cu408   2.040       .  S
N401        C402   1.349       .  A
N401       Cu407   2.087       .  S
C402        C403   1.392       .  A
C402        H405   1.081       .  S
C403        C404   1.379       .  A
C403       C1739   1.480       .  S
C404        H406   1.082       .  S
Cu407       N410   2.089       .  S
Cu408       N418   2.041       .  S
Cu409       N411   2.089       .  S
Cu409       N417   2.086       .  S
N410        N411   1.326       .  A
N410        C414   1.348       .  A
N411        C412   1.345       .  A
C412        C413   1.383       .  A
C412        H415   1.082       .  S
C413        C414   1.383       .  A
C414        H416   1.082       .  S
N417        N418   1.318       .  A
N417        C421   1.350       .  A
N418        C419   1.337       .  A
C419        C420   1.381       .  A
C419        H422   1.081       .  S
C420        C421   1.393       .  A
C420       C1599   1.482       .  S
C421        H423   1.081       .  S
N424        N425   1.320       .  A
N424        C428   1.342       .  A
N424       Cu432   2.051       .  S
N425        C426   1.347       .  A
N425       Cu431   2.087       .  S
C426        C427   1.391       .  A
C426        H429   1.082       .  S
C427        C428   1.384       .  A
C427       C1586   1.485       .  S
C428        H430   1.081       .  S
Cu431       N434   2.088       .  S
Cu432       N442   2.051       .  S
Cu433       N435   2.091       .  S
Cu433       N441   2.090       .  S
N434        N435   1.325       .  A
N434        C438   1.347       .  A
N435        C436   1.348       .  A
C436        C437   1.385       .  A
C436        H439   1.082       .  S
C437        C438   1.384       .  A
C437       C1218   1.481       .  S
C438        H440   1.082       .  S
N441        N442   1.322       .  A
N441        C445   1.349       .  A
N442        C443   1.340       .  A
C443        C444   1.376       .  A
C443        H446   1.082       .  S
C444        C445   1.387       .  A
C444       C1799   1.469       .  S
C445        H447   1.082       .  S
N448        N449   1.321       .  A
N448        C452   1.350       .  A
N448       Cu456   2.103       .  S
N449        C450   1.340       .  A
N449       Cu455   2.057       .  S
C450        C451   1.384       .  A
C450        H453   1.079       .  S
C451        C452   1.396       .  A
C451       C1566   1.493       .  S
C452        H454   1.081       .  S
Cu455       N458   2.057       .  S
Cu456       N466   2.103       .  S
Cu457       N459   2.059       .  S
Cu457       N465   2.060       .  S
N458        N459   1.317       .  A
N458        C462   1.342       .  A
N459        C460   1.343       .  A
C460        C461   1.389       .  A
C460        H463   1.081       .  S
C461        C462   1.388       .  A
C461       C1576   1.484       .  S
C462        H464   1.080       .  S
N465        N466   1.322       .  A
N465        C469   1.341       .  A
N466        C467   1.349       .  A
C467        C468   1.395       .  A
C467        H470   1.081       .  S
C468        C469   1.384       .  A
C468       C1556   1.492       .  S
C469        H471   1.079       .  S
N472        N473   1.323       .  A
N472        C476   1.349       .  A
N472       Cu480   2.101       .  S
N473        C474   1.342       .  A
N473       Cu479   2.062       .  S
C474        C475   1.381       .  A
C474        H477   1.082       .  S
C475        C476   1.392       .  A
C475       C1536   1.485       .  S
C476        H478   1.081       .  S
Cu479       N482   2.061       .  S
Cu480       N490   2.100       .  S
Cu481       N483   2.058       .  S
Cu481       N489   2.059       .  S
N482        N483   1.318       .  A
N482        C486   1.343       .  A
N483        C484   1.342       .  A
C484        C485   1.388       .  A
C484        H487   1.080   1_455  S
C485        C486   1.389       .  A
C485       C1579   1.484   1_455  S
C486        H488   1.081       .  S
N489        N490   1.321       .  A
N489        C493   1.341       .  A
N490        C491   1.350       .  A
C491        C492   1.396       .  A
C491        H494   1.080       .  S
C492        C493   1.384       .  A
C492       C1546   1.493       .  S
C493        H495   1.081   1_455  S
N496        N497   1.322       .  A
N496        C500   1.348       .  A
N496       Cu504   2.097       .  S
N497        C498   1.341       .  A
N497       Cu503   2.062       .  S
C498        C499   1.385       .  A
C498        H501   1.080       .  S
C499        C500   1.394       .  A
C499       C1516   1.491       .  S
C500        H502   1.081       .  S
Cu503       N506   2.061       .  S
Cu504       N514   2.097       .  S
Cu505       N507   2.050       .  S
Cu505       N513   2.050       .  S
N506        N507   1.318       .  A
N506        C510   1.343       .  A
N507        C508   1.341       .  A
C508        C509   1.382       .  A
C508        H511   1.082       .  S
C509        C510   1.385       .  A
C509       C1529   1.472       .  S
C510        H512   1.082       .  S
N513        N514   1.321       .  A
N513        C517   1.340       .  A
N514        C515   1.349       .  A
C515        C516   1.392       .  A
C515        H518   1.082       .  S
C516        C517   1.381       .  A
C516       C1509   1.484       .  S
C517        H519   1.081       .  S
N520        N521   1.322       .  A
N520        C524   1.350       .  A
N520       Cu528   2.101       .  S
N521        C522   1.341       .  A
N521       Cu527   2.060       .  S
C522        C523   1.385       .  A
C522        H525   1.081       .  S
C523        C524   1.396       .  A
C523       C1549   1.494       .  S
C524        H526   1.080       .  S
Cu527       N530   2.060       .  S
Cu528       N538   2.101       .  S
Cu529       N531   2.054       .  S
Cu529       N537   2.055       .  S
N530        N531   1.318       .  A
N530        C534   1.342       .  A
N531        C532   1.341       .  A
C532        C533   1.386       .  A
C532        H535   1.081       .  S
C533        C534   1.388       .  A
C533       C1526   1.481       .  S
C534        H536   1.080       .  S
N537        N538   1.324       .  A
N537        C541   1.342       .  A
N538        C539   1.350       .  A
C539        C540   1.387       .  A
C539        H542   1.082       .  S
C540        C541   1.375       .  A
C540       C1499   1.469       .  S
C541        H543   1.082       .  S
N544        N545   1.323       .  A
N544        C548   1.351       .  A
N544       Cu552   2.111       .  S
N545        C546   1.340       .  A
N545       Cu551   2.056       .  S
C546        C547   1.383       .  A
C546        H549   1.079   1_455  S
C547        C548   1.397       .  A
C547       C1569   1.493       .  S
C548        H550   1.081       .  S
Cu551       N554   2.054       .  S
Cu552       N562   2.110       .  S
Cu553       N555   2.046       .  S
Cu553       N561   2.047       .  S
N554        N555   1.317       .  A
N554        C558   1.344       .  A
N555        C556   1.339       .  A
C556        C557   1.381       .  A
C556        H559   1.082       .  S
C557        C558   1.383       .  A
C557       C1486   1.468       .  S
C558        H560   1.082   1_455  S
N561        N562   1.322       .  A
N561        C565   1.339       .  A
N562        C563   1.352       .  A
C563        C564   1.396       .  A
C563        H566   1.081       .  S
C564        C565   1.378       .  A
C564       C1476   1.486       .  S
C565        H567   1.082       .  S
N568        N569   1.319       .  A
N568        C572   1.344       .  A
N568       Cu576   2.058       .  S
N569        C570   1.340       .  A
N569       Cu575   2.057       .  S
C570        C571   1.384       .  A
C570        H573   1.081       .  S
C571        C572   1.385       .  A
C571       C1489   1.476       .  S
C572        H574   1.081       .  S
Cu575       N578   2.057       .  S
Cu576       N586   2.059       .  S
Cu577       N579   2.083       .  S
Cu577       N585   2.083       .  S
N578        N579   1.320       .  A
N578        C582   1.342       .  A
N579        C580   1.346       .  A
C580        C581   1.391       .  A
C580        H583   1.081       .  S
C581        C582   1.384       .  A
C581       C1466   1.485       .  S
C582        H584   1.080   1_655  S
N585        N586   1.322       .  A
N585        C589   1.345       .  A
N586        C587   1.341       .  A
C587        C588   1.384       .  A
C587        H590   1.081       .  S
C588        C589   1.390       .  A
C588       C1459   1.483       .  S
C589        H591   1.080       .  S
N592        N593   1.321       .  A
N592        C596   1.350       .  A
N592       Cu600   2.099       .  S
N593        C594   1.338       .  A
N593       Cu599   2.051       .  S
C594        C595   1.381       .  A
C594        H597   1.080       .  S
C595        C596   1.394       .  A
C595       C1469   1.486       .  S
C596        H598   1.081       .  S
Cu599       N602   2.051       .  S
Cu600       N610   2.100       .  S
Cu601       N603   2.061       .  S
Cu601       N609   2.062       .  S
N602        N603   1.317       .  A
N602        C606   1.342       .  A
N603        C604   1.343       .  A
C604        C605   1.388       .  A
C604        H607   1.082       .  S
C605        C606   1.385       .  A
C605       C1446   1.478       .  S
C606        H608   1.081       .  S
N609        N610   1.325       .  A
N609        C613   1.343       .  A
N610        C611   1.349       .  A
C611        C612   1.387       .  A
C611        H614   1.082       .  S
C612        C613   1.376       .  A
C612       C1439   1.471       .  S
C613        H615   1.082       .  S
N616        N617   1.320       .  A
N616        C620   1.350       .  A
N616       Cu624   2.098       .  S
N617        C618   1.339       .  A
N617       Cu623   2.051       .  S
C618        C619   1.383       .  A
C618        H621   1.079       .  S
C619        C620   1.395       .  A
C619       C1519   1.490       .  S
C620        H622   1.081       .  S
Cu623       N626   2.051       .  S
Cu624       N634   2.099       .  S
Cu625       N627   2.063       .  S
Cu625       N633   2.065       .  S
N626        N627   1.318       .  A
N626        C630   1.340       .  A
N627        C628   1.345       .  A
C628        C629   1.387       .  A
C628        H631   1.082       .  S
C629        C630   1.384       .  A
C629       C1449   1.477       .  S
C630        H632   1.081       .  S
N633        N634   1.323       .  A
N633        C637   1.341       .  A
N634        C635   1.349       .  A
C635        C636   1.392       .  A
C635        H638   1.081       .  S
C636        C637   1.383       .  A
C636       C1426   1.488       .  S
C637        H639   1.081       .  S
N640        N641   1.321       .  A
N640        C644   1.341       .  A
N640       Cu648   2.056       .  S
N641        C642   1.350       .  A
N641       Cu647   2.090       .  S
C642        C643   1.390       .  A
C642        H645   1.082       .  S
C643        C644   1.381       .  A
C643       C1636   1.481       .  S
C644        H646   1.081       .  S
Cu647       N650   2.091       .  S
Cu648       N658   2.056       .  S
Cu649       N651   2.087       .  S
Cu649       N657   2.086       .  S
N650        N651   1.325       .  A
N650        C654   1.348       .  A
N651        C652   1.347       .  A
C652        C653   1.384       .  A
C652        H655   1.082       .  S
C653        C654   1.385       .  A
C653       C1220   1.479       .  S
C654        H656   1.082       .  S
N657        N658   1.319       .  A
N657        C661   1.347       .  A
N658        C659   1.341       .  A
C659        C660   1.385       .  A
C659        H662   1.081       .  S
C660        C661   1.394       .  A
C660       C1429   1.490       .  S
C661        H663   1.080       .  S
N664        N665   1.320       .  A
N664        C668   1.340       .  A
N664       Cu672   2.046       .  S
N665        C666   1.349       .  A
N665       Cu671   2.087       .  S
C666        C667   1.391       .  A
C666        H669   1.082       .  S
C667        C668   1.380       .  A
C667       C1506   1.480       .  S
C668        H670   1.081       .  S
Cu671       N674   2.088       .  S
Cu672       N682   2.045       .  S
Cu673       N675   2.087       .  S
Cu673       N681   2.084       .  S
N674        N675   1.326       .  A
N674        C678   1.348       .  A
N675        C676   1.345       .  A
C676        C677   1.383       .  A
C676        H679   1.082       .  S
C677        C678   1.384       .  A
C678        H680   1.082       .  S
N681        N682   1.320       .  A
N681        C685   1.349       .  A
N682        C683   1.339       .  A
C683        C684   1.380       .  A
C683        H686   1.081       .  S
C684        C685   1.390       .  A
C684       C1616   1.476       .  S
C685        H687   1.082       .  S
N688        N689   1.319       .  A
N688        C692   1.342       .  A
N688       Cu696   2.054       .  S
N689        C690   1.344       .  A
N689       Cu695   2.067       .  S
C690        C691   1.387       .  A
C690        H693   1.082       .  S
C691        C692   1.384       .  A
C691       C1416   1.478       .  S
C692        H694   1.081       .  S
Cu695       N698   2.069       .  S
Cu696       N706   2.054       .  S
Cu697       N699   2.100       .  S
Cu697       N705   2.100       .  S
N698        N699   1.324       .  A
N698        C702   1.343       .  A
N699        C700   1.350       .  A
C700        C701   1.388       .  A
C700        H703   1.082       .  S
C701        C702   1.380       .  A
C702        H704   1.082       .  S
N705        N706   1.321       .  A
N705        C709   1.351       .  A
N706        C707   1.339       .  A
C707        C708   1.383       .  A
C707        H710   1.081       .  S
C708        C709   1.395       .  A
C708       C1539   1.490       .  S
C709        H711   1.081       .  S
N712        N713   1.323       .  A
N712        C716   1.341       .  A
N712       Cu720   2.059       .  S
N713        C714   1.351       .  A
N713       Cu719   2.093       .  S
C714        C715   1.387       .  A
C714        H717   1.082       .  S
C715        C716   1.377       .  A
C715       C1496   1.472       .  S
C716        H718   1.082       .  S
Cu719       N722   2.094       .  S
Cu720       N730   2.059       .  S
Cu721       N723   2.073       .  S
Cu721       N729   2.072       .  S
N722        N723   1.324       .  A
N722        C726   1.350       .  A
N723        C724   1.343       .  A
C724        C725   1.380       .  A
C724        H727   1.082       .  S
C725        C726   1.386       .  A
C726        H728   1.082       .  S
N729        N730   1.319       .  A
N729        C733   1.345       .  A
N730        C731   1.343       .  A
C731        C732   1.384       .  A
C731        H734   1.082       .  S
C732        C733   1.388       .  A
C732       C1409   1.480       .  S
C733        H735   1.081       .  S
N736        N737   1.318       .  A
N736        C740   1.340       .  A
N736       Cu744   2.042       .  S
N737        C738   1.346       .  A
N737       Cu743   2.069       .  S
C738        C739   1.384       .  A
C738        H741   1.082       .  S
C739        C740   1.378       .  A
C739       C1609   1.463       .  S
C740        H742   1.082       .  S
Cu743       N746   2.071       .  S
Cu744       N754   2.041       .  S
Cu745       N747   2.110       .  S
Cu745       N753   2.109       .  S
N746        N747   1.326       .  A
N746        C750   1.343       .  A
N747        C748   1.351       .  A
C748        C749   1.389       .  A
C748        H751   1.082       .  S
C749        C750   1.379       .  A
C750        H752   1.082       .  S
N753        N754   1.321       .  A
N753        C757   1.354       .  A
N754        C755   1.338       .  A
C755        C756   1.375       .  A
C755        H758   1.082       .  S
C756        C757   1.394       .  A
C756       C1479   1.480       .  S
C757        H759   1.082       .  S
N760        N761   1.320       .  A
N760        C764   1.341       .  A
N760       Cu768   2.053       .  S
N761        C762   1.345       .  A
N761       Cu767   2.076       .  S
C762        C763   1.388       .  A
C762        H765   1.082       .  S
C763        C764   1.383       .  A
C763       C1649   1.479       .  S
C764        H766   1.081       .  S
Cu767       N770   2.076       .  S
Cu768       N778   2.054       .  S
Cu769       N771   2.091       .  S
Cu769       N777   2.090       .  S
N770        N771   1.325       .  A
N770        C774   1.345       .  A
N771        C772   1.348       .  A
C772        C773   1.384       .  A
C772        H775   1.082       .  S
C773        C774   1.381       .  A
C774        H776   1.082       .  S
N777        N778   1.321       .  A
N777        C781   1.349       .  A
N778        C779   1.341       .  A
C779        C780   1.381       .  A
C779        H782   1.081       .  S
C780        C781   1.391       .  A
C780       C1559   1.482       .  S
C781        H783   1.082       .  S
N784        N785   1.318       .  A
N784        C788   1.341       .  A
N784       Cu792   2.050       .  S
N785        C786   1.346       .  A
N785       Cu791   2.065       .  S
C786        C787   1.386       .  A
C786        H789   1.082       .  S
C787        C788   1.382       .  A
C787       C1456   1.474       .  S
C788        H790   1.082       .  S
Cu791       N794   2.068       .  S
Cu792       N802   2.050       .  S
Cu793       N795   2.109       .  S
Cu793       N801   2.108       .  S
N794        N795   1.325       .  A
N794        C798   1.341       .  A
N795        C796   1.353       .  A
C796        C797   1.392       .  A
C796        H799   1.082       .  S
C797        C798   1.381       .  A
C798        H800   1.082       .  S
N801        N802   1.323       .  A
N801        C805   1.352       .  A
N802        C803   1.339       .  A
C803        C804   1.377       .  A
C803        H806   1.082       .  S
C804        C805   1.392       .  A
C804       C1396   1.480       .  S
C805        H807   1.082       .  S
N808        N809   1.321       .  A
N808        C812   1.338       .  A
N808       Cu816   2.044       .  S
N809        C810   1.352       .  A
N809       Cu815   2.101       .  S
C810        C811   1.391       .  A
C810        H813   1.082       .  S
C811        C812   1.375       .  A
C811       C1436   1.474       .  S
C812        H814   1.082       .  S
Cu815       N818   2.103       .  S
Cu816       N826   2.046       .  S
Cu817       N819   2.077       .  S
Cu817       N825   2.075       .  S
N818        N819   1.326       .  A
N818        C822   1.350       .  A
N819        C820   1.344       .  A
C820        C821   1.380       .  A
C820        H823   1.082       .  S
C821        C822   1.387       .  A
C822        H824   1.082       .  S
N825        N826   1.319       .  A
N825        C829   1.348       .  A
N826        C827   1.339       .  A
C827        C828   1.379       .  A
C827        H830   1.082       .  S
C828        C829   1.387       .  A
C828       C1386   1.471       .  S
C829        H831   1.082       .  S
N832        N833   1.323       .  A
N832        C836   1.349       .  A
N832       Cu840   2.103       .  S
N833        C834   1.341       .  A
N833       Cu839   2.057       .  S
C834        C835   1.382       .  A
C834        H837   1.081   1_556  S
C835        C836   1.394       .  A
C835       C1366   1.487       .  S
C836        H838   1.081       .  S
Cu839       N842   2.055       .  S
Cu840       N850   2.102       .  S
Cu841       N843   2.055       .  S
Cu841       N849   2.055       .  S
N842        N843   1.319       .  A
N842        C846   1.344       .  A
N843        C844   1.341       .  A
C844        C845   1.383       .  A
C844        H847   1.082       .  S
C845        C846   1.383       .  A
C845       C1376   1.471       .  S
C846        H848   1.082   1_556  S
N849        N850   1.323       .  A
N849        C853   1.341       .  A
N850        C851   1.350       .  A
C851        C852   1.390       .  A
C851        H854   1.082       .  S
C852        C853   1.377       .  A
C852       C1356   1.476       .  S
C853        H855   1.082       .  S
N856        N857   1.319       .  A
N856        C860   1.344       .  A
N856       Cu864   2.060       .  S
N857        C858   1.340       .  A
N857       Cu863   2.059       .  S
C858        C859   1.386       .  A
C858        H861   1.081       .  S
C859        C860   1.387       .  A
C859       C1379   1.480       .  S
C860        H862   1.081       .  S
Cu863       N866   2.060       .  S
Cu864       N874   2.060       .  S
Cu865       N867   2.081       .  S
Cu865       N873   2.081       .  S
N866        N867   1.321       .  A
N866        C870   1.343       .  A
N867        C868   1.345       .  A
C868        C869   1.389       .  A
C868        H871   1.081       .  S
C869        C870   1.384       .  A
C869       C1346   1.482       .  S
C870        H872   1.081   1_554  S
N873        N874   1.322       .  A
N873        C877   1.346       .  A
N874        C875   1.341       .  A
C875        C876   1.381       .  A
C875        H878   1.082       .  S
C876        C877   1.387       .  A
C876       C1336   1.478       .  S
C877        H879   1.081       .  S
N880        N881   1.322       .  A
N880        C884   1.349       .  A
N880       Cu888   2.101       .  S
N881        C882   1.341       .  A
N881       Cu887   2.049       .  S
C882        C883   1.380       .  A
C882        H885   1.081       .  S
C883        C884   1.393       .  A
C883       C1309   1.483       .  S
C884        H886   1.082       .  S
Cu887       N890   2.049       .  S
Cu888       N898   2.102       .  S
Cu889       N891   2.062       .  S
Cu889       N897   2.064       .  S
N890        N891   1.319       .  A
N890        C894   1.340       .  A
N891        C892   1.344   1_556  A
C892        C893   1.383   1_554  A
C892        H895   1.082       .  S
C893        C894   1.379       .  A
C893       C1326   1.465   1_556  S
C894        H896   1.082       .  S
N897        N898   1.322       .  A
N897        C901   1.342       .  A
N898        C899   1.348       .  A
C899        C900   1.396       .  A
C899        H902   1.081       .  S
C900        C901   1.386       .  A
C900       C1316   1.496       .  S
C901        H903   1.079   1_556  S
N904        N905   1.322       .  A
N904        C908   1.350       .  A
N904       Cu912   2.100       .  S
N905        C906   1.340       .  A
N905       Cu911   2.056       .  S
C906        C907   1.381       .  A
C906        H909   1.081       .  S
C907        C908   1.392       .  A
C907       C1369   1.485       .  S
C908        H910   1.082       .  S
Cu911       N914   2.056       .  S
Cu912       N922   2.100       .  S
Cu913       N915   2.050       .  S
Cu913       N921   2.051       .  S
N914        N915   1.317       .  A
N914        C918   1.342       .  A
N915        C916   1.342       .  A
C916        C917   1.384       .  A
C916        H919   1.082       .  S
C917        C918   1.386       .  A
C917       C1329   1.476       .  S
C918        H920   1.081       .  S
N921        N922   1.322       .  A
N921        C925   1.340       .  A
N922        C923   1.349       .  A
C923        C924   1.392       .  A
C923        H926   1.082       .  S
C924        C925   1.380       .  A
C924       C1296   1.483       .  S
C925        H927   1.081       .  S
N928        N929   1.322       .  A
N928        C932   1.351       .  A
N928       Cu936   2.101       .  S
N929        C930   1.339       .  A
N929       Cu935   2.054       .  S
C930        C931   1.380       .  A
C930        H933   1.082       .  S
C931        C932   1.393       .  A
C931       C1279   1.484       .  S
C932        H934   1.081       .  S
Cu935       N938   2.053       .  S
Cu936       N946   2.101       .  S
Cu937       N939   2.053       .  S
Cu937       N945   2.055       .  S
N938        N939   1.318       .  A
N938        C942   1.342       .  A
N939        C940   1.343       .  A
C940        C941   1.381       .  A
C940        H943   1.082       .  S
C941        C942   1.380       .  A
C941       C1286   1.464       .  S
C942        H944   1.080   1_554  S
N945        N946   1.323       .  A
N945        C949   1.339       .  A
N946        C947   1.350       .  A
C947        C948   1.392       .  A
C947        H950   1.082       .  S
C948        C949   1.381       .  A
C948       C1266   1.485       .  S
C949        H951   1.081       .  S
N952        N953   1.322       .  A
N952        C956   1.351       .  A
N952       Cu960   2.096       .  S
N953        C954   1.339       .  A
N953       Cu959   2.052       .  S
C954        C955   1.380       .  A
C954        H957   1.081       .  S
C955        C956   1.391       .  A
C955       C1349   1.481       .  S
C956        H958   1.082       .  S
Cu959       N962   2.052       .  S
Cu960       N970   2.097       .  S
Cu961       N963   2.056       .  S
Cu961       N969   2.057       .  S
N962        N963   1.318       .  A
N962        C966   1.342       .  A
N963        C964   1.342       .  A
C964        C965   1.386       .  A
C964        H967   1.081       .  S
C965        C966   1.386       .  A
C965       C1289   1.478       .  S
C966        H968   1.081       .  S
N969        N970   1.323       .  A
N969        C973   1.342       .  A
N970        C971   1.347       .  A
C971        C972   1.392       .  A
C971        H974   1.081       .  S
C972        C973   1.381       .  A
C972       C1256   1.485       .  S
C973        H975   1.082       .  S
N976        N977   1.320       .  A
N976        C980   1.349       .  A
N976       Cu984   2.102       .  S
N977        C978   1.339       .  A
N977       Cu983   2.054       .  S
C978        C979   1.387       .  A
C978        H981   1.077       .  S
C979        C980   1.399       .  A
C979       C1319   1.499       .  S
C980        H982   1.081       .  S
Cu983       N986   2.054       .  S
Cu984       N994   2.103       .  S
Cu985       N987   2.058       .  S
Cu985       N993   2.060       .  S
N986        N987   1.316       .  A
N986        C990   1.341       .  A
N987        C988   1.342       .  A
C988        C989   1.390       .  A
C988        H991   1.080       .  S
C989        C990   1.389       .  A
C989       C1246   1.487       .  S
C990        H992   1.079       .  S
N993        N994   1.322       .  A
N993        C997   1.341       .  A
N994        C995   1.348       .  A
C995        C996   1.397       .  A
C995        H998   1.081       .  S
C996        C997   1.386       .  A
C996       C1236   1.497       .  S
C997        H999   1.078       .  S
N1000      N1001   1.324       .  A
N1000      C1004   1.348       .  A
N1000     Cu1008   2.097       .  S
N1001      C1002   1.343       .  A
N1001     Cu1007   2.061       .  S
C1002      C1003   1.378       .  A
C1002      H1005   1.082       .  S
C1003      C1004   1.388       .  A
C1003      C1276   1.476       .  S
C1004      H1006   1.082       .  S
Cu1007     N1010   2.061       .  S
Cu1008     N1018   2.096       .  S
Cu1009     N1011   2.050       .  S
Cu1009     N1017   2.050       .  S
N1010      N1011   1.317       .  A
N1010      C1014   1.343       .  A
N1011      C1012   1.340       .  A
C1012      C1013   1.387       .  A
C1012      H1015   1.080       .  S
C1013      C1014   1.390       .  A
C1013      C1249   1.484       .  S
C1014      H1016   1.080       .  S
N1017      N1018   1.322       .  A
N1017      C1021   1.340       .  A
N1018      C1019   1.349       .  A
C1019      C1020   1.390       .  A
C1019      H1022   1.082       .  S
C1020      C1021   1.378       .  A
C1020      C1226   1.477       .  S
C1021      H1023   1.082       .  S
N1024      N1025   1.320       .  A
N1024      C1028   1.339       .  A
N1024     Cu1032   2.041       .  S
N1025      C1026   1.350       .  A
N1025     Cu1031   2.091       .  S
C1026      C1027   1.391       .  A
C1026      H1029   1.082       .  S
C1027      C1028   1.377       .  A
C1027      C1229   1.476       .  S
C1028      H1030   1.082       .  S
Cu1031     N1034   2.093       .  S
Cu1032     N1042   2.041       .  S
Cu1033     N1035   2.093       .  S
Cu1033     N1041   2.090       .  S
N1034      N1035   1.326       .  A
N1034      C1038   1.348       .  A
N1035      C1036   1.346       .  A
C1036      C1037   1.384       .  A
C1036      H1039   1.082       .  S
C1037      C1038   1.384       .  A
C1038      H1040   1.082       .  S
N1041      N1042   1.319       .  A
N1041      C1045   1.350       .  A
N1042      C1043   1.338       .  A
C1043      C1044   1.379       .  A
C1043      H1046   1.082       .  S
C1044      C1045   1.392       .  A
C1044      C1406   1.480       .  S
C1045      H1047   1.081       .  S
N1048      N1049   1.319       .  A
N1048      C1052   1.334       .  A
N1048     Cu1056   2.031       .  S
N1049      C1050   1.354       .  A
N1049     Cu1055   2.107       .  S
C1050      C1051   1.399       .  A
C1050      H1053   1.081       .  S
C1051      C1052   1.378       .  A
C1051      C1259   1.488       .  S
C1052      H1054   1.081       .  S
Cu1055     N1058   2.111       .  S
Cu1056     N1066   2.032       .  S
Cu1057     N1059   2.077       .  S
Cu1057     N1065   2.073       .  S
N1058      N1059   1.328       .  A
N1058      C1062   1.351       .  A
N1059      C1060   1.342       .  A
C1060      C1061   1.378       .  A
C1060      H1063   1.082       .  S
C1061      C1062   1.388       .  A
C1062      H1064   1.082       .  S
N1065      N1066   1.317       .  A
N1065      C1069   1.349       .  A
N1066      C1067   1.337       .  A
C1067      C1068   1.377       .  A
C1067      H1070   1.082       .  S
C1068      C1069   1.388       .  A
C1068      C1659   1.468       .  S
C1069      H1071   1.082       .  S
N1072      N1073   1.321       .  A
N1072      C1076   1.342       .  A
N1072     Cu1080   2.056       .  S
N1073      C1074   1.349       .  A
N1073     Cu1079   2.092       .  S
C1074      C1075   1.391       .  A
C1074      H1077   1.082       .  S
C1075      C1076   1.383       .  A
C1075      C1399   1.485       .  S
C1076      H1078   1.081       .  S
Cu1079     N1082   2.093       .  S
Cu1080     N1090   2.055       .  S
Cu1081     N1083   2.087       .  S
Cu1081     N1089   2.086       .  S
N1082      N1083   1.325       .  A
N1082      C1086   1.348       .  A
N1083      C1084   1.347       .  A
C1084      C1085   1.384       .  A
C1084      H1087   1.082       .  S
C1085      C1086   1.386       .  A
C1085      C1216   1.482       .  S
C1086      H1088   1.082       .  S
N1089      N1090   1.320       .  A
N1089      C1093   1.347       .  A
N1090      C1091   1.342       .  A
C1091      C1092   1.383       .  A
C1091      H1094   1.081       .  S
C1092      C1093   1.391       .  A
C1092      C1269   1.484       .  S
C1093      H1095   1.082       .  S
N1096      N1097   1.316       .  A
N1096      C1100   1.340       .  A
N1096     Cu1104   2.052       .  S
N1097      C1098   1.344       .  A
N1097     Cu1103   2.065       .  S
C1098      C1099   1.393       .  A
C1098      H1101   1.079       .  S
C1099      C1100   1.388       .  A
C1099      C1339   1.490       .  S
C1100      H1102   1.081       .  S
Cu1103     N1106   2.067       .  S
Cu1104     N1114   2.051       .  S
Cu1105     N1107   2.102       .  S
Cu1105     N1113   2.101       .  S
N1106      N1107   1.324       .  A
N1106      C1110   1.341       .  A
N1107      C1108   1.351       .  A
C1108      C1109   1.390       .  A
C1108      H1111   1.081       .  S
C1109      C1110   1.381       .  A
C1110      H1112   1.082       .  S
N1113      N1114   1.323       .  A
N1113      C1117   1.351       .  A
N1114      C1115   1.339       .  A
C1115      C1116   1.377       .  A
C1115      H1118   1.082       .  S
C1116      C1117   1.390       .  A
C1116      C1589   1.477       .  S
C1117      H1119   1.082       .  S
N1120      N1121   1.319       .  A
N1120      C1124   1.338       .  A
N1120     Cu1128   2.042       .  S
N1121      C1122   1.348       .  A
N1121     Cu1127   2.077       .  S
C1122      C1123   1.387       .  A
C1122      H1125   1.082       .  S
C1123      C1124   1.377       .  A
C1123      C1389   1.468       .  S
C1124      H1126   1.082       .  S
Cu1127     N1130   2.079       .  S
Cu1128     N1138   2.042       .  S
Cu1129     N1131   2.092       .  S
Cu1129     N1137   2.090       .  S
N1130      N1131   1.326       .  A
N1130      C1134   1.345       .  A
N1131      C1132   1.347       .  A
C1132      C1133   1.383       .  A
C1132      H1135   1.082       .  S
C1133      C1134   1.379       .  A
C1134      H1136   1.082       .  S
N1137      N1138   1.320       .  A
N1137      C1141   1.350       .  A
N1138      C1139   1.338       .  A
C1139      C1140   1.378       .  A
C1139      H1142   1.082       .  S
C1140      C1141   1.391       .  A
C1140      C1299   1.477       .  S
C1141      H1143   1.082       .  S
N1144      N1145   1.318       .  A
N1144      C1148   1.342       .  A
N1144     Cu1152   2.054       .  S
N1145      C1146   1.344       .  A
N1145     Cu1151   2.069       .  S
C1146      C1147   1.389       .  A
C1146      H1149   1.081       .  S
C1147      C1148   1.386       .  A
C1147      C1419   1.483       .  S
C1148      H1150   1.080       .  S
Cu1151     N1154   2.070       .  S
Cu1152     N1162   2.053       .  S
Cu1153     N1155   2.101       .  S
Cu1153     N1161   2.100       .  S
N1154      N1155   1.324       .  A
N1154      C1158   1.344       .  A
N1155      C1156   1.350       .  A
C1156      C1157   1.388       .  A
C1156      H1159   1.082       .  S
C1157      C1158   1.380       .  A
C1158      H1160   1.082       .  S
N1161      N1162   1.322       .  A
N1161      C1165   1.351       .  A
N1162      C1163   1.340       .  A
C1163      C1164   1.379       .  A
C1163      H1166   1.082       .  S
C1164      C1165   1.392       .  A
C1164      C1359   1.482       .  S
C1165      H1167   1.081       .  S
N1168      N1169   1.318       .  A
N1168      C1172   1.340       .  A
N1168     Cu1176   2.045       .  S
N1169      C1170   1.346       .  A
N1169     Cu1175   2.070       .  S
C1170      C1171   1.387       .  A
C1170      H1173   1.082       .  S
C1171      C1172   1.381       .  A
C1171      C1629   1.473       .  S
C1172      H1174   1.081       .  S
Cu1175     N1178   2.072       .  S
Cu1176     N1186   2.044       .  S
Cu1177     N1179   2.103       .  S
Cu1177     N1185   2.102       .  S
N1178      N1179   1.326       .  A
N1178      C1182   1.343       .  A
N1179      C1180   1.350       .  A
C1180      C1181   1.388       .  A
C1180      H1183   1.082       .  S
C1181      C1182   1.379       .  A
C1182      H1184   1.082       .  S
N1185      N1186   1.320       .  A
N1185      C1189   1.351       .  A
N1186      C1187   1.338       .  A
C1187      C1188   1.381       .  A
C1187      H1190   1.080       .  S
C1188      C1189   1.396       .  A
C1188      C1306   1.488       .  S
C1189      H1191   1.081       .  S
N1192      N1193   1.321       .  A
N1192      C1196   1.340       .  A
N1192     Cu1200   2.059       .  S
N1193      C1194   1.350       .  A
N1193     Cu1199   2.097       .  S
C1194      C1195   1.395       .  A
C1194      H1197   1.081       .  S
C1195      C1196   1.385       .  A
C1195      C1239   1.493       .  S
C1196      H1198   1.079       .  S
Cu1199     N1202   2.097       .  S
Cu1200     N1210   2.059       .  S
Cu1201     N1203   2.068       .  S
Cu1201     N1209   2.068       .  S
N1202      N1203   1.324       .  A
N1202      C1206   1.351       .  A
N1203      C1204   1.342       .  A
C1204      C1205   1.379       .  A
C1204      H1207   1.082       .  S
C1205      C1206   1.388       .  A
C1206      H1208   1.082       .  S
N1209      N1210   1.320       .  A
N1209      C1213   1.344       .  A
N1210      C1211   1.344       .  A
C1211      C1212   1.383       .  A
C1211      H1214   1.082       .  S
C1212      C1213   1.386       .  A
C1212      C1596   1.476       .  S
C1213      H1215   1.082       .  S
C1216      C1217   1.406       .  A
C1216      C1221   1.405       .  A
C1217      C1218   1.406       .  A
C1217      H1222   1.084       .  S
C1218      C1219   1.406       .  A
C1219      C1220   1.405       .  A
C1219      H1223   1.084       .  S
C1220      C1221   1.406       .  A
C1221      H1224   1.084       .  S
C1225      C1226   1.407       .  A
C1225      C1230   1.399       .  A
C1225      H1232   1.083       .  S
C1226      C1227   1.403       .  A
C1227      C1228   1.398       .  A
C1227      F1234   1.357       .  S
C1228      C1229   1.406       .  A
C1228      H1233   1.083       .  S
C1229      C1230   1.403       .  A
C1230      F1231   1.357       .  S
C1235      C1236   1.405       .  A
C1235      C1240   1.398       .  A
C1235      H1242   1.080       .  S
C1236      C1237   1.415       .  A
C1237      C1238   1.401       .  A
C1237      F1244   1.355       .  S
C1238      C1239   1.404       .  A
C1238      H1243   1.082       .  S
C1239      C1240   1.412       .  A
C1240      F1241   1.355       .  S
C1245      C1246   1.407       .  A
C1245      C1250   1.396       .  A
C1245      H1252   1.080       .  S
C1246      C1247   1.409   1_554  A
C1247      C1248   1.394       .  A
C1247      F1254   1.355       .  S
C1248      C1249   1.405       .  A
C1248      H1253   1.080       .  S
C1249      C1250   1.407   1_556  A
C1250      F1251   1.356       .  S
C1255      C1256   1.409       .  A
C1255      C1260   1.403       .  A
C1255      H1262   1.082       .  S
C1256      C1257   1.404       .  A
C1257      C1258   1.394       .  A
C1257      F1264   1.357       .  S
C1258      C1259   1.409       .  A
C1258      H1263   1.081       .  S
C1259      C1260   1.406       .  A
C1260      F1261   1.356       .  S
C1265      C1266   1.404       .  A
C1265      C1270   1.400       .  A
C1265      H1272   1.083       .  S
C1266      C1267   1.411       .  A
C1267      C1268   1.396       .  A
C1267      F1274   1.356       .  S
C1268      C1269   1.402       .  A
C1268      H1273   1.082       .  S
C1269      C1270   1.410       .  A
C1270      F1271   1.357       .  S
C1275      C1276   1.405   1_554  A
C1275      C1280   1.402       .  A
C1275      H1282   1.083       .  S
C1276      C1277   1.402       .  A
C1277      C1278   1.396       .  A
C1277      F1284   1.358       .  S
C1278      C1279   1.407   1_556  A
C1278      H1283   1.082       .  S
C1279      C1280   1.407       .  A
C1280      F1281   1.357       .  S
C1285      C1286   1.400   1_556  A
C1285      C1290   1.395       .  A
C1285      H1292   1.083       .  S
C1286      C1287   1.401       .  A
C1287      C1288   1.395       .  A
C1287      F1294   1.358       .  S
C1288      C1289   1.407   1_554  A
C1288      H1293   1.082       .  S
C1289      C1290   1.408       .  A
C1290      F1291   1.357       .  S
C1295      C1296   1.402       .  A
C1295      C1300   1.396       .  A
C1295      H1302   1.083       .  S
C1296      C1297   1.413       .  A
C1297      C1298   1.399       .  A
C1297      F1304   1.357       .  S
C1298      C1299   1.400       .  A
C1298      H1303   1.083       .  S
C1299      C1300   1.408       .  A
C1300      F1301   1.357       .  S
C1305      C1306   1.404       .  A
C1305      C1310   1.400       .  A
C1305      H1312   1.082       .  S
C1306      C1307   1.413       .  A
C1307      C1308   1.397       .  A
C1307      F1314   1.356       .  S
C1308      C1309   1.401       .  A
C1308      H1313   1.083       .  S
C1309      C1310   1.410       .  A
C1310      F1311   1.357       .  S
C1315      C1316   1.403       .  A
C1315      C1320   1.398       .  A
C1315      H1322   1.081       .  S
C1316      C1317   1.413   1_556  A
C1317      C1318   1.400       .  A
C1317      F1324   1.355       .  S
C1318      C1319   1.406       .  A
C1318      H1323   1.081       .  S
C1319      C1320   1.415   1_554  A
C1320      F1321   1.354       .  S
C1325      C1326   1.401   1_556  A
C1325      C1330   1.393   1_556  A
C1325      H1332   1.084       .  S
C1326      C1327   1.401       .  A
C1327      C1328   1.397       .  A
C1327      F1334   1.357       .  S
C1328      C1329   1.406       .  A
C1328      H1333   1.083       .  S
C1329      C1330   1.408       .  A
C1330      F1331   1.357   1_554  S
C1335      C1336   1.403       .  A
C1335      C1340   1.397       .  A
C1335      H1342   1.083       .  S
C1336      C1337   1.403       .  A
C1337      C1338   1.396       .  A
C1337      F1344   1.357       .  S
C1338      C1339   1.409       .  A
C1338      H1343   1.081       .  S
C1339      C1340   1.411       .  A
C1340      F1341   1.355       .  S
C1345      C1346   1.402       .  A
C1345      C1350   1.394       .  A
C1345      H1352   1.083       .  S
C1346      C1347   1.410   1_554  A
C1347      C1348   1.401       .  A
C1347      F1354   1.357       .  S
C1348      C1349   1.403       .  A
C1348      H1353   1.083       .  S
C1349      C1350   1.409   1_556  A
C1350      F1351   1.357       .  S
C1355      C1356   1.405       .  A
C1355      C1360   1.401       .  A
C1355      H1362   1.083       .  S
C1356      C1357   1.403       .  A
C1357      C1358   1.399       .  A
C1357      F1364   1.357       .  S
C1358      C1359   1.407       .  A
C1358      H1363   1.083       .  S
C1359      C1360   1.406       .  A
C1360      F1361   1.357       .  S
C1365      C1366   1.403       .  A
C1365      C1370   1.398       .  A
C1365      H1372   1.082       .  S
C1366      C1367   1.412   1_556  A
C1367      C1368   1.400       .  A
C1367      F1374   1.357       .  S
C1368      C1369   1.402       .  A
C1368      H1373   1.083       .  S
C1369      C1370   1.411   1_554  A
C1370      F1371   1.357       .  S
C1375      C1376   1.401   1_554  A
C1375      C1380   1.398       .  A
C1375      H1382   1.083       .  S
C1376      C1377   1.404       .  A
C1377      C1378   1.393       .  A
C1377      F1384   1.358       .  S
C1378      C1379   1.405   1_556  A
C1378      H1383   1.082       .  S
C1379      C1380   1.409       .  A
C1380      F1381   1.356       .  S
C1385      C1386   1.404       .  A
C1385      C1390   1.401       .  A
C1385      H1392   1.083       .  S
C1386      C1387   1.405       .  A
C1387      C1388   1.392       .  A
C1387      F1394   1.358       .  S
C1388      C1389   1.401       .  A
C1388      H1393   1.084       .  S
C1389      C1390   1.404       .  A
C1390      F1391   1.357       .  S
C1395      C1396   1.402       .  A
C1395      C1400   1.401       .  A
C1395      H1402   1.083       .  S
C1396      C1397   1.408       .  A
C1397      C1398   1.398       .  A
C1397      F1404   1.357       .  S
C1398      C1399   1.403       .  A
C1398      H1403   1.083       .  S
C1399      C1400   1.412       .  A
C1400      F1401   1.357       .  S
C1405      C1406   1.405       .  A
C1405      C1410   1.395       .  A
C1405      H1412   1.083       .  S
C1406      C1407   1.405       .  A
C1407      C1408   1.400       .  A
C1407      F1414   1.357       .  S
C1408      C1409   1.406       .  A
C1408      H1413   1.083       .  S
C1409      C1410   1.406       .  A
C1410      F1411   1.357       .  S
C1415      C1416   1.403       .  A
C1415      C1420   1.397       .  A
C1415      H1422   1.083       .  S
C1416      C1417   1.406       .  A
C1417      C1418   1.396       .  A
C1417      F1424   1.357       .  S
C1418      C1419   1.406       .  A
C1418      H1423   1.082       .  S
C1419      C1420   1.410       .  A
C1420      F1421   1.356       .  S
C1425      C1426   1.407       .  A
C1425      C1430   1.398       .  A
C1425      H1432   1.082       .  S
C1426      C1427   1.407       .  A
C1427      C1428   1.400       .  A
C1427      F1434   1.356       .  S
C1428      C1429   1.409       .  A
C1428      H1433   1.082       .  S
C1429      C1430   1.408       .  A
C1430      F1431   1.356       .  S
C1435      C1436   1.404       .  A
C1435      C1440   1.397       .  A
C1435      H1442   1.083       .  S
C1436      C1437   1.405       .  A
C1437      C1438   1.402       .  A
C1437      F1444   1.357       .  S
C1438      C1439   1.404       .  A
C1438      H1443   1.083       .  S
C1439      C1440   1.402       .  A
C1440      F1441   1.357       .  S
C1445      C1446   1.404       .  A
C1445      C1450   1.394       .  A
C1445      H1452   1.082       .  S
C1446      C1447   1.407   1_455  A
C1447      C1448   1.397       .  A
C1447      F1454   1.357       .  S
C1448      C1449   1.404       .  A
C1448      H1453   1.083       .  S
C1449      C1450   1.407   1_655  A
C1450      F1451   1.357       .  S
C1455      C1456   1.403       .  A
C1455      C1460   1.396       .  A
C1455      H1462   1.083       .  S
C1456      C1457   1.402       .  A
C1457      C1458   1.397       .  A
C1457      F1464   1.357       .  S
C1458      C1459   1.409       .  A
C1458      H1463   1.082       .  S
C1459      C1460   1.408       .  A
C1460      F1461   1.356       .  S
C1465      C1466   1.402       .  A
C1465      C1470   1.396   1_655  A
C1465      H1472   1.082       .  S
C1466      C1467   1.411   1_655  A
C1467      C1468   1.400       .  A
C1467      F1474   1.356       .  S
C1468      C1469   1.404       .  A
C1468      H1473   1.082       .  S
C1469      C1470   1.411       .  A
C1470      F1471   1.356   1_455  S
C1475      C1476   1.411       .  A
C1475      C1480   1.401       .  A
C1475      H1482   1.082       .  S
C1476      C1477   1.405       .  A
C1477      C1478   1.398       .  A
C1477      F1484   1.357       .  S
C1478      C1479   1.407       .  A
C1478      H1483   1.083       .  S
C1479      C1480   1.402       .  A
C1480      F1481   1.357       .  S
C1485      C1486   1.401   1_655  A
C1485      C1490   1.399       .  A
C1485      H1492   1.083       .  S
C1486      C1487   1.404       .  A
C1487      C1488   1.391       .  A
C1487      F1494   1.358       .  S
C1488      C1489   1.404   1_455  A
C1488      H1493   1.082       .  S
C1489      C1490   1.409       .  A
C1490      F1491   1.357       .  S
C1495      C1496   1.403       .  A
C1495      C1500   1.402       .  A
C1495      H1502   1.083       .  S
C1496      C1497   1.405       .  A
C1497      C1498   1.397       .  A
C1497      F1504   1.357       .  S
C1498      C1499   1.401       .  A
C1498      H1503   1.083       .  S
C1499      C1500   1.405       .  A
C1500      F1501   1.357       .  S
C1505      C1506   1.401       .  A
C1505      C1510   1.398       .  A
C1505      H1512   1.083       .  S
C1506      C1507   1.409       .  A
C1507      C1508   1.398       .  A
C1507      F1514   1.357       .  S
C1508      C1509   1.403       .  A
C1508      H1513   1.083       .  S
C1509      C1510   1.412       .  A
C1510      F1511   1.356       .  S
C1515      C1516   1.403       .  A
C1515      C1520   1.397       .  A
C1515      H1522   1.081       .  S
C1516      C1517   1.412   1_455  A
C1517      C1518   1.400       .  A
C1517      F1524   1.356       .  S
C1518      C1519   1.404       .  A
C1518      H1523   1.082       .  S
C1519      C1520   1.412   1_655  A
C1520      F1521   1.356       .  S
C1525      C1526   1.407       .  A
C1525      C1530   1.396       .  A
C1525      H1532   1.082       .  S
C1526      C1527   1.410   1_655  A
C1527      C1528   1.394       .  A
C1527      F1534   1.356       .  S
C1528      C1529   1.402       .  A
C1528      H1533   1.083       .  S
C1529      C1530   1.402   1_455  A
C1530      F1531   1.357       .  S
C1535      C1536   1.407       .  A
C1535      C1540   1.401       .  A
C1535      H1542   1.083       .  S
C1536      C1537   1.405       .  A
C1537      C1538   1.398       .  A
C1537      F1544   1.357       .  S
C1538      C1539   1.409       .  A
C1538      H1543   1.082       .  S
C1539      C1540   1.408       .  A
C1540      F1541   1.356       .  S
C1545      C1546   1.409   1_655  A
C1545      C1550   1.400       .  A
C1545      H1552   1.082       .  S
C1546      C1547   1.407       .  A
C1547      C1548   1.400       .  A
C1547      F1554   1.356       .  S
C1548      C1549   1.410   1_455  A
C1548      H1553   1.081       .  S
C1549      C1550   1.408       .  A
C1550      F1551   1.356       .  S
C1555      C1556   1.405       .  A
C1555      C1560   1.399       .  A
C1555      H1562   1.082       .  S
C1556      C1557   1.415       .  A
C1557      C1558   1.399       .  A
C1557      F1564   1.355       .  S
C1558      C1559   1.400       .  A
C1558      H1563   1.083       .  S
C1559      C1560   1.408       .  A
C1560      F1561   1.357       .  S
C1565      C1566   1.404       .  A
C1565      C1570   1.400       .  A
C1565      H1572   1.082       .  S
C1566      C1567   1.414   1_655  A
C1567      C1568   1.399       .  A
C1567      F1574   1.355       .  S
C1568      C1569   1.403       .  A
C1568      H1573   1.081       .  S
C1569      C1570   1.414   1_455  A
C1570      F1571   1.356       .  S
C1575      C1576   1.405       .  A
C1575      C1580   1.396       .  A
C1575      H1582   1.081       .  S
C1576      C1577   1.408       .  A
C1577      C1578   1.396   1_655  A
C1577      F1584   1.356   1_655  S
C1578      C1579   1.406   1_455  A
C1578      H1583   1.081       .  S
C1579      C1580   1.408       .  A
C1580      F1581   1.356       .  S
C1585      C1586   1.404       .  A
C1585      C1590   1.397       .  A
C1585      H1592   1.082       .  S
C1586      C1587   1.413       .  A
C1587      C1588   1.401       .  A
C1587      F1594   1.356       .  S
C1588      C1589   1.401       .  A
C1588      H1593   1.083       .  S
C1589      C1590   1.406       .  A
C1590      F1591   1.357       .  S
C1595      C1596   1.405       .  A
C1595      C1600   1.400       .  A
C1595      H1602   1.083       .  S
C1596      C1597   1.404       .  A
C1597      C1598   1.394       .  A
C1597      F1604   1.357       .  S
C1598      C1599   1.407       .  A
C1598      H1603   1.082       .  S
C1599      C1600   1.407       .  A
C1600      F1601   1.356       .  S
C1605      C1606   1.404       .  A
C1605      C1610   1.394       .  A
C1605      H1612   1.083       .  S
C1606      C1607   1.406       .  A
C1607      C1608   1.399       .  A
C1607      F1614   1.357       .  S
C1608      C1609   1.400       .  A
C1608      H1613   1.083       .  S
C1609      C1610   1.402       .  A
C1610      F1611   1.358       .  S
C1615      C1616   1.402       .  A
C1615      C1620   1.399       .  A
C1615      H1622   1.083       .  S
C1616      C1617   1.407       .  A
C1617      C1618   1.395       .  A
C1617      F1624   1.357       .  S
C1618      C1619   1.403       .  A
C1618      H1623   1.082       .  S
C1619      C1620   1.409       .  A
C1620      F1621   1.357       .  S
C1625      C1626   1.399       .  A
C1625      C1630   1.394       .  A
C1625      H1632   1.084       .  S
C1626      C1627   1.401       .  A
C1627      C1628   1.399       .  A
C1627      F1634   1.357       .  S
C1628      C1629   1.405       .  A
C1628      H1633   1.083       .  S
C1629      C1630   1.408       .  A
C1630      F1631   1.357       .  S
C1635      C1636   1.407       .  A
C1635      C1640   1.404       .  A
C1635      H1642   1.083       .  S
C1636      C1637   1.408       .  A
C1637      C1638   1.395       .  A
C1637      F1644   1.358       .  S
C1638      C1639   1.402       .  A
C1638      H1643   1.084       .  S
C1639      C1640   1.403       .  A
C1640      F1641   1.357       .  S
C1645      C1646   1.403       .  A
C1645      C1650   1.398       .  A
C1645      H1652   1.083       .  S
C1646      C1647   1.409       .  A
C1647      C1648   1.396       .  A
C1647      F1654   1.357       .  S
C1648      C1649   1.402       .  A
C1648      H1653   1.083       .  S
C1649      C1650   1.408       .  A
C1650      F1651   1.357       .  S
C1655      C1656   1.403       .  A
C1655      C1660   1.401       .  A
C1655      H1662   1.083       .  S
C1656      C1657   1.404       .  A
C1657      C1658   1.391       .  A
C1657      F1664   1.358       .  S
C1658      C1659   1.402       .  A
C1658      H1663   1.084       .  S
C1659      C1660   1.404       .  A
C1660      F1661   1.357       .  S
C1665      C1666   1.409       .  A
C1665      C1670   1.395       .  A
C1665      H1672   1.081       .  S
C1666      C1667   1.409       .  A
C1667      C1668   1.401       .  A
C1667      F1674   1.356       .  S
C1668      C1669   1.406       .  A
C1668      H1673   1.083       .  S
C1669      C1670   1.403       .  A
C1670      F1671   1.357       .  S
C1675      C1676   1.401       .  A
C1675      C1680   1.399       .  A
C1675      H1682   1.083       .  S
C1676      C1677   1.404       .  A
C1677      C1678   1.401       .  A
C1677      F1684   1.357       .  S
C1678      C1679   1.403       .  A
C1678      H1683   1.083       .  S
C1679      C1680   1.405       .  A
C1680      F1681   1.357       .  S
C1685      C1686   1.401       .  A
C1685      C1690   1.398       .  A
C1685      H1692   1.083       .  S
C1686      C1687   1.404       .  A
C1687      C1688   1.394       .  A
C1687      F1694   1.357   1_565  S
C1688      C1689   1.407       .  A
C1688      H1693   1.081       .  S
C1689      C1690   1.412       .  A
C1690      F1691   1.356       .  S
C1695      C1696   1.405       .  A
C1695      C1700   1.399       .  A
C1695      H1702   1.083       .  S
C1696      C1697   1.404       .  A
C1697      C1698   1.396       .  A
C1697      F1704   1.357       .  S
C1698      C1699   1.409       .  A
C1698      H1703   1.081       .  S
C1699      C1700   1.410       .  A
C1700      F1701   1.355       .  S
C1705      C1706   1.401       .  A
C1705      C1710   1.398       .  A
C1705      H1712   1.083       .  S
C1706      C1707   1.410       .  A
C1707      C1708   1.402       .  A
C1707      F1714   1.357       .  S
C1708      C1709   1.405       .  A
C1708      H1713   1.082       .  S
C1709      C1710   1.413       .  A
C1710      F1711   1.356       .  S
C1715      C1716   1.410       .  A
C1715      C1720   1.397       .  A
C1715      H1722   1.076       .  S
C1716      C1717   1.408       .  A
C1717      C1718   1.402       .  A
C1717      F1724   1.355   1_565  S
C1718      C1719   1.412       .  A
C1718      H1723   1.078       .  S
C1719      C1720   1.408       .  A
C1720      F1721   1.355       .  S
C1725      C1726   1.404       .  A
C1725      C1730   1.397       .  A
C1725      H1732   1.082       .  S
C1726      C1727   1.407       .  A
C1727      C1728   1.394       .  A
C1727      F1734   1.356       .  S
C1728      C1729   1.406       .  A
C1728      H1733   1.080   1_565  S
C1729      C1730   1.411       .  A
C1730      F1731   1.356       .  S
C1735      C1736   1.408       .  A
C1735      C1740   1.398       .  A
C1735      H1742   1.082       .  S
C1736      C1737   1.405       .  A
C1737      C1738   1.396       .  A
C1737      F1744   1.357       .  S
C1738      C1739   1.407       .  A
C1738      H1743   1.083       .  S
C1739      C1740   1.404       .  A
C1740      F1741   1.357       .  S
C1745      C1746   1.402       .  A
C1745      C1750   1.396       .  A
C1745      H1752   1.083       .  S
C1746      C1747   1.412       .  A
C1747      C1748   1.401       .  A
C1747      F1754   1.357       .  S
C1748      C1749   1.401       .  A
C1748      H1753   1.083       .  S
C1749      C1750   1.408       .  A
C1750      F1751   1.357       .  S
C1755      C1756   1.408       .  A
C1755      C1760   1.401       .  A
C1755      H1762   1.082       .  S
C1756      C1757   1.407       .  A
C1757      C1758   1.398       .  A
C1757      F1764   1.356       .  S
C1758      C1759   1.408       .  A
C1758      H1763   1.082       .  S
C1759      C1760   1.407       .  A
C1760      F1761   1.357   1_565  S
C1765      C1766   1.406       .  A
C1765      C1770   1.393       .  A
C1765      H1772   1.081       .  S
C1766      C1767   1.411       .  A
C1767      C1768   1.397       .  A
C1767      F1774   1.356   1_565  S
C1768      C1769   1.401       .  A
C1768      H1773   1.083       .  S
C1769      C1770   1.405       .  A
C1770      F1771   1.357       .  S
C1775      C1776   1.401       .  A
C1775      C1780   1.401       .  A
C1775      H1782   1.083       .  S
C1776      C1777   1.409       .  A
C1777      C1778   1.397       .  A
C1777      F1784   1.357       .  S
C1778      C1779   1.402       .  A
C1778      H1783   1.083       .  S
C1779      C1780   1.413       .  A
C1780      F1781   1.356       .  S
C1785      C1786   1.408   1_565  A
C1785      C1790   1.397       .  A
C1785      H1792   1.082       .  S
C1786      C1787   1.407       .  A
C1787      C1788   1.400   1_545  A
C1787      F1794   1.356       .  S
C1788      C1789   1.408       .  A
C1788      H1793   1.082   1_565  S
C1789      C1790   1.406       .  A
C1790      F1791   1.356       .  S
C1795      C1796   1.404       .  A
C1795      C1800   1.400       .  A
C1795      H1802   1.083       .  S
C1796      C1797   1.402       .  A
C1797      C1798   1.397       .  A
C1797      F1804   1.357       .  S
C1798      C1799   1.403       .  A
C1798      H1803   1.083       .  S
C1799      C1800   1.403       .  A
C1800      F1801   1.357       .  S
C1805      C1806   1.408       .  A
C1805      C1810   1.397   1_565  A
C1805      H1812   1.081       .  S
C1806      C1807   1.408       .  A
C1807      C1808   1.401       .  A
C1807      F1814   1.356       .  S
C1808      C1809   1.406       .  A
C1808      H1813   1.083       .  S
C1809      C1810   1.405   1_565  A
C1810      F1811   1.357       .  S
C1815      C1816   1.399       .  A
C1815      C1820   1.394       .  A
C1815      H1822   1.083       .  S
C1816      C1817   1.402       .  A
C1817      C1818   1.396       .  A
C1817      F1824   1.358       .  S
C1818      C1819   1.407       .  A
C1818      H1823   1.082       .  S
C1819      C1820   1.408       .  A
C1820      F1821   1.357   1_565  S
