geometry optimzed in LAMMPS
_audit_creation_date              2020-11-30 
_audit_creation_method            'lammps2cif' 
_symmetry_space_group_name_H-M    'P1' 
_symmetry_Int_Tables_number       1 
_symmetry_cell_setting            triclinic 
loop_ 
_symmetry_equiv_pos_as_xyz 
  x,y,z 
_cell_length_a                    64.95491744 
_cell_length_b                    64.51748524174675 
_cell_length_c                    47.534686314266665 
_cell_angle_alpha                 102.03312593731921 
_cell_angle_beta                  79.26742038155352 
_cell_angle_gamma                 130.19001615978053 
loop_ 
_atom_site_label 
_atom_site_type_symbol 
_atom_site_fract_x 
_atom_site_fract_y 
_atom_site_fract_z 
_atom_site_charge 
C1          C  0.31395651  0.14957969  0.46816286     0.30200
C2          C  0.33005988  0.16168596  0.02040184     0.30200
C3          C  0.32894421  0.13924947  0.47318035    -0.06000
C4          C  0.33489095  0.18066694  0.47715521    -0.06800
C5          C  0.29202694  0.13914672  0.49295120    -0.06700
C6          C  0.33709218  0.14611913  0.99760995    -0.06100
C7          C  0.33901964  0.18559407  0.00560596    -0.06800
C8          C  0.29876318  0.14275961  0.02015566    -0.06700
C9          C  0.35136082  0.13712597  0.99742058    -0.32100
N10         N  0.35073604  0.12371673  0.47767457     0.14400
C11         C  0.33856475  0.12541024  0.45870515    -0.32100
H12         H  0.33735179  0.11748212  0.43616183     0.16300
C13         C  0.35361796  0.21347143  0.01238734    -0.31100
N14         N  0.35497373  0.22384403  0.98941098     0.13100
C15         C  0.34727963  0.20468832  0.46572700    -0.31100
C16         C  0.27660010  0.13588228  0.03934894    -0.31400
N17         N  0.25465802  0.12290513  0.02393601     0.13600
H18         H  0.27677800  0.14142930  0.06245785     0.16300
C19         C  0.26498500  0.12646022  0.49485070    -0.31400
H20         H  0.25261156  0.11875156  0.47703235     0.16300
H21         H  0.34538252  0.20645206  0.44437571     0.16300
H22         H  0.36061824  0.13896725  0.01550261     0.16300
H23         H  0.36259979  0.22539598  0.03253684     0.16300
C24         C  0.35071941  0.18457520  0.21890343     0.30200
C25         C  0.33316098  0.17346786  0.27432944     0.30200
C26         C  0.35680437  0.16792526  0.22955665    -0.06000
C27         C  0.36213896  0.20915819  0.24188975    -0.06800
C28         C  0.31970118  0.16634438  0.22529656    -0.06700
C29         C  0.34780466  0.16237290  0.25805299    -0.06100
C30         C  0.35259805  0.20374381  0.26994204    -0.06800
C31         C  0.31077240  0.16051184  0.25360800    -0.06700
C32         C  0.35193554  0.14491615  0.26293549    -0.32100
N33         N  0.36336084  0.13991484  0.23849387     0.14400
C34         C  0.36564910  0.15305775  0.21778720    -0.32100
H35         H  0.37258206  0.15103608  0.19566927     0.16300
C36         C  0.36381335  0.22865006  0.28674112    -0.31100
N37         N  0.38057834  0.24875461  0.26925020     0.13100
C38         C  0.37964741  0.23699387  0.24185483    -0.31100
C39         C  0.28282979  0.14199906  0.25454829    -0.31400
N40         N  0.27454867  0.13796808  0.22843530     0.13600
H41         H  0.26903030  0.13187849  0.27273034     0.16300
C42         C  0.29683876  0.15199947  0.21000828    -0.31400
H43         H  0.29642035  0.15218743  0.18742294     0.16300
H44         H  0.39000648  0.24793342  0.22309234     0.16300
H45         H  0.34654869  0.13595472  0.28257006     0.16300
H46         H  0.35998178  0.23189052  0.30973722     0.16300
O47         O  0.03211612  0.47503368  0.39786844    -0.75100
O48         O  0.02956544  0.47300666  0.44624767    -0.54100
C49         C  0.03639282  0.46919654  0.41944878     0.78600
O50         O  0.04246594  0.09307091  0.42381894    -0.59700
O51         O  0.50499919  0.07180331  0.40091662    -0.52800
C52         C  0.02719377  0.09317684  0.41017080     0.70600
O53         O  0.07524090  0.06443165  0.46618094    -0.74300
O54         O  0.05501745  0.02548960  0.48626150    -0.54900
C55         C  0.07558301  0.04988418  0.48075022     0.76600
O56         O  0.50641802  0.00345825  0.33922263    -0.59400
O57         O  0.48457259  0.02122853  0.35072146    -0.52600
C58         C  0.49595214  0.01307339  0.33126341     0.73200
Zr59       Zr  0.01191770  0.49404612  0.38729988     2.54700
O60         O  0.05675887  0.01949314  0.35876231    -0.80000
O61         O  0.49463883  0.45304767  0.35472482    -0.93400
Zr62       Zr  0.04243378  0.06053438  0.44208345     2.64700
O63         O  0.08309931  0.08140625  0.40959908    -0.98400
O64         O  0.06235217  0.10195247  0.47600171    -0.80400
O65         O  0.03425311  0.01862295  0.43018430    -0.83800
O66         O  0.02074294  0.03680365  0.39777791    -2.18500
O67         O  0.41359002  0.45221338  0.40463269    -0.67200
O68         O  0.43001911  0.99073840  0.39162680    -0.51800
C69         C  0.41249616  0.46650671  0.39077087     0.71600
O70         O  0.48328181  0.02065831  0.03990120    -0.60100
O71         O  0.00136950  0.49738476  0.02848803    -0.52100
C72         C  0.48943303  0.50462525  0.04707309     0.73400
O73         O  0.45253154  0.04242255  0.47910365    -0.71500
O74         O  0.45410902  0.04152908  0.43024462    -0.50200
C75         C  0.44753331  0.04650703  0.45654682     0.74800
O76         O  0.43965128  0.42298814  0.45435984    -0.66800
O77         O  0.47724506  0.44317509  0.47802128    -0.54000
C78         C  0.45385179  0.42219665  0.46897587     0.73100
Zr79       Zr  0.44415100  0.45691671  0.43298639     2.77500
O80         O  0.40086868  0.43432028  0.46109050    -0.97600
O81         O  0.42982166  0.41775220  0.39700048    -0.78400
Zr82       Zr  0.47239759  0.02321100  0.49106525     2.70100
O83         O  0.42845798  0.49864413  0.01878341    -0.79600
O84         O  0.49417675  0.06955043  0.02347777    -0.98700
Zr85       Zr  0.00648398  0.49066799  0.47298984     2.21500
Zr86       Zr  0.47664175  0.02342164  0.40583827     2.11100
O87         O  0.45111364  0.49828393  0.44580992    -2.47400
O88         O  0.46364983  0.47978954  0.47849490    -0.79400
O89         O  0.47011348  0.48265070  0.39315775    -0.71600
O90         O  0.01717141  0.03567709  0.48272214    -2.32600
O91         O  0.48752056  0.46923177  0.42611591    -2.28800
O92         O  0.49876352  0.04805378  0.45035950    -0.73400
H93         H  0.03091287  0.04809817  0.38227363     0.78600
H94         H  0.02611903  0.04509661  0.00000062     0.79700
H95         H  0.43360052  0.49381981  0.44787270     0.81900
H96         H  0.48535134  0.45265302  0.42159187     0.79500
H97         H  0.05749355  0.09573736  0.49525408     0.42600
H98         H  0.98126489  0.06218511  0.03778757     0.41500
H99         H  0.42275776  0.48046409  0.02018414     0.41200
H100        H  0.39345160  0.44295906  0.45772998     0.39100
H101        H  0.41197779  0.40227567  0.40484090     0.42300
H102        H  0.47896681  0.44881770  0.34708025     0.37100
H103        H  0.05318784  0.00909325  0.33929641     0.43200
H104        H  0.08351359  0.06626731  0.40129085     0.39600
H105        H  0.38907038  0.41554456  0.45104487     0.44500
H106        H  0.48651312  0.43909791  0.36790781     0.43200
H107        H  0.07901936  0.08536019  0.39333345     0.43400
H108        H  0.47872045  0.06674578  0.03594815     0.43700
O109        O  0.03490157  0.47983159  0.15123480    -0.75100
O110        O  0.03496615  0.48294981  0.20027773    -0.54100
C111        C  0.04068132  0.47690868  0.17405279     0.78600
O112        O  0.04464695  0.09565590  0.16566589    -0.59700
O113        O  0.51035138  0.07549605  0.14304552    -0.52800
C114        C  0.02972161  0.09486277  0.15025711     0.70600
O115        O  0.07829279  0.06242476  0.19861931    -0.74300
O116        O  0.05996908  0.02904483  0.22716778    -0.54900
C117        C  0.08014464  0.04915064  0.21344630     0.76600
O118        O  0.00201293  0.99897910  0.08836490    -0.59400
O119        O  0.48495364  0.02176154  0.10086330    -0.52600
C120        C  0.49491612  0.01196906  0.08155806     0.73200
Zr121      Zr  0.01250515  0.49619731  0.13885235     2.54700
O122        O  0.04968340  0.01042314  0.10364691    -0.80000
O123        O  0.48617169  0.44565469  0.11014512    -0.93400
Zr124      Zr  0.04406929  0.06369074  0.18681133     2.64700
O125        O  0.08373037  0.08662377  0.15294423    -0.98400
O126        O  0.06634830  0.10362357  0.22277265    -0.80400
O127        O  0.03376376  0.02072557  0.17808628    -0.83800
O128        O  0.01932330  0.03610714  0.14500181    -2.18500
O129        O  0.41032912  0.45476288  0.16785052    -0.67200
O130        O  0.43347229  0.99855086  0.14579821    -0.51800
C131        C  0.40887789  0.46827546  0.15292551     0.71600
O132        O  0.48629063  0.02397748  0.28954407    -0.60100
O133        O  0.00870208  0.50781778  0.27988112    -0.52100
C134        C  0.49776887  0.51492259  0.29708737     0.73400
O135        O  0.46103929  0.05248971  0.22969750    -0.71500
O136        O  0.46059962  0.04980317  0.18090400    -0.50200
C137        C  0.45566433  0.05644910  0.20729541     0.74800
O138        O  0.44372987  0.43082524  0.21664299    -0.66800
O139        O  0.48404781  0.45303843  0.23535950    -0.54000
C140        C  0.45966010  0.43157365  0.23024025     0.73100
Zr141      Zr  0.44466744  0.46073237  0.19117409     2.77500
O142        O  0.40558706  0.44243792  0.22579051    -0.97600
O143        O  0.42295822  0.41771893  0.15981584    -0.78400
Zr144      Zr  0.48066659  0.03317742  0.24217321     2.70100
O145        O  0.43746349  0.50968162  0.27068426    -0.79600
O146        O  0.50351684  0.07714124  0.27194795    -0.98700
Zr147      Zr  0.01440607  0.50288530  0.22475349     2.21500
Zr148      Zr  0.48078556  0.02910652  0.15614857     2.11100
O149        O  0.45414504  0.50348751  0.19957981    -2.47400
O150        O  0.46986344  0.48856787  0.23253050    -0.79400
O151        O  0.46707438  0.48098902  0.14734167    -0.71600
O152        O  0.02165952  0.04284933  0.23058518    -2.32600
O153        O  0.48694036  0.47035376  0.18058175    -2.28800
O154        O  0.50460359  0.05601218  0.19935595    -0.73400
H155        H  0.02880648  0.04584050  0.12827569     0.78600
H156        H  0.03286788  0.05393538  0.24666114     0.79700
H157        H  0.43718098  0.50021787  0.20319109     0.81900
H158        H  0.48391427  0.45335796  0.17805310     0.79500
H159        H  0.08585903  0.11300456  0.21835256     0.42600
H160        H  0.00811846  0.08920555  0.25299922     0.41500
H161        H  0.42588652  0.51049172  0.26082980     0.41200
H162        H  0.40135206  0.45492788  0.22762913     0.39100
H163        H  0.43528403  0.42227035  0.14217921     0.42300
H164        H  0.48120267  0.43371543  0.12450003     0.37100
H165        H  0.06106173  0.03052876  0.10813287     0.43200
H166        H  0.07745916  0.08673774  0.13556569     0.39600
H167        H  0.39055442  0.42519877  0.21546802     0.44500
H168        H  0.50043894  0.44651663  0.09708993     0.43200
H169        H  0.09554386  0.10596816  0.16148505     0.43400
H170        H  0.51652516  0.07868848  0.28210957     0.43700
C171        C  0.15025407  0.34232189  0.35948096     0.30200
C172        C  0.16000506  0.36467663  0.41507195     0.30200
C173        C  0.14296307  0.36139530  0.37071269    -0.06000
C174        C  0.13619365  0.32232991  0.38172197    -0.06800
C175        C  0.18035732  0.36146595  0.36604363    -0.06700
C176        C  0.14805754  0.37265427  0.39904376    -0.06100
C177        C  0.14146901  0.33324370  0.40995362    -0.06800
C178        C  0.18527978  0.37235140  0.39499785    -0.06700
C179        C  0.13868910  0.38730034  0.40632677    -0.32100
N180        N  0.12776657  0.38506903  0.38311786     0.14400
C181        C  0.13088127  0.36996088  0.36095507    -0.32100
H182        H  0.12372830  0.36466262  0.33979509     0.16300
C183        C  0.12774316  0.31130933  0.42583392    -0.31100
N184        N  0.11357584  0.28776194  0.40756326     0.13100
C185        C  0.11913814  0.29443945  0.38051871    -0.31100
C186        C  0.21246886  0.38670579  0.39721861    -0.31400
N187        N  0.22456965  0.38732135  0.37049961     0.13600
H188        H  0.22294927  0.39538332  0.41675012     0.16300
C189        C  0.20518763  0.37206357  0.35124224    -0.31400
H190        H  0.20906972  0.36925737  0.32820663     0.16300
H191        H  0.11163053  0.27995157  0.36124015     0.16300
H192        H  0.13855122  0.39763116  0.42737399     0.16300
H193        H  0.12768864  0.31234236  0.44886063     0.16300
C194        C  0.15138697  0.35697221  0.11193030     0.30200
C195        C  0.14261956  0.34694015  0.16721231     0.30200
C196        C  0.14321858  0.37205304  0.13460268    -0.06000
C197        C  0.12970577  0.32658398  0.11689947    -0.06800
C198        C  0.17633982  0.36638640  0.12550723    -0.06700
C199        C  0.13811548  0.36635978  0.16250522    -0.06100
C200        C  0.12587333  0.32177921  0.14526022    -0.06800
C201        C  0.17171890  0.36035714  0.15361049    -0.06700
C202        C  0.13160464  0.38191802  0.17939804    -0.32100
N203        N  0.13343655  0.39758047  0.16229325     0.14400
C204        C  0.14111506  0.39213892  0.13519262    -0.32100
H205        H  0.14419069  0.40181185  0.11711143     0.16300
C206        C  0.11549056  0.29515752  0.14474609    -0.31100
N207        N  0.11077986  0.28276893  0.11750288     0.13100
C208        C  0.12036074  0.30190206  0.09994231    -0.31100
C209        C  0.19628575  0.37069521  0.16216990    -0.31400
N210        N  0.21572275  0.38448889  0.14102670     0.13600
H211        H  0.19996510  0.36857886  0.18225547     0.16300
C212        C  0.20381817  0.38252549  0.11894377    -0.31400
H213        H  0.21468791  0.39283901  0.09988621     0.16300
H214        H  0.12197407  0.29862477  0.07663674     0.16300
H215        H  0.12572812  0.38165710  0.20225534     0.16300
H216        H  0.11283040  0.28565378  0.16281784     0.16300
C217        C  0.14706859  0.31237913  0.28125894    -0.11200
C218        C  0.12712737  0.31279912  0.27490409     0.15300
C219        C  0.10870340  0.31150464  0.29689693     0.02200
C220        C  0.11494910  0.31669681  0.32498757    -0.15600
C221        C  0.14047794  0.32637232  0.33057621    -0.10400
C222        C  0.15356736  0.31853986  0.30968672     0.08900
C223        C  0.13071800  0.32250413  0.24820516     0.10000
S224        S  0.08074070  0.30921018  0.29018411    -0.24700
H225        H  0.10167097  0.31693552  0.34233402     0.20200
S226        S  0.17569470  0.31299784  0.31754704    -0.30400
H227        H  0.15928911  0.31017793  0.26404718     0.10500
C228        C  0.15355984  0.34945522  0.24296488     0.03700
C229        C  0.15621664  0.35828853  0.21731594    -0.12700
C230        C  0.13606278  0.34104750  0.19785609    -0.08400
C231        C  0.11061676  0.31755729  0.20728560     0.07200
C232        C  0.10925256  0.30688099  0.23050466    -0.13500
S233        S  0.17877104  0.37292013  0.26902036    -0.30400
H234        H  0.17399840  0.37841571  0.21228106     0.11400
S235        S  0.07895340  0.30185184  0.19288561    -0.27500
H236        H  0.09065590  0.28734655  0.23614340     0.08700
H237        H  0.16742698  0.31059630  0.34694265     0.27100
H238        H  0.19460613  0.39582565  0.25370898     0.21900
H239        H  0.08765533  0.32533065  0.18238818     0.27200
H240        H  0.06727054  0.30282825  0.31770862     0.16000
C241        C  0.14147470  0.37030146  0.49455443    -0.11200
C242        C  0.16703159  0.38948180  0.50537474     0.15300
C243        C  0.18988281  0.40520047  0.48668335     0.02200
C244        C  0.18701082  0.39846177  0.45712183    -0.15600
C245        C  0.16187880  0.37591342  0.44627099    -0.10400
C246        C  0.13828714  0.36439798  0.46545806     0.08900
C247        C  0.16319088  0.38563426  0.03294996     0.10000
S248        S  0.22289401  0.43313183  0.49933819    -0.24700
H249        H  0.20436909  0.41126119  0.44293163     0.20200
S250        S  0.10313162  0.34114561  0.45650993    -0.30400
H251        H  0.12361092  0.35835712  0.50889006     0.10500
C252        C  0.14268352  0.38076006  0.05394412     0.03700
C253        C  0.13581650  0.36543060  0.07543471    -0.12700
C254        C  0.15362287  0.36185840  0.08146218    -0.08400
C255        C  0.17332282  0.36517032  0.05968141     0.07200
C256        C  0.17797712  0.37728308  0.03570442    -0.13500
S257        S  0.12493168  0.39360993  0.05308419    -0.30400
H258        H  0.11794683  0.35878697  0.08956985     0.11400
S259        S  0.18899141  0.34969338  0.05738214    -0.27500
H260        H  0.19169178  0.37822402  0.01803962     0.08700
H261        H  0.10493379  0.33847889  0.42651582     0.27100
H262        H  0.10436854  0.37868268  0.07437960     0.21900
H263        H  0.17211067  0.33224542  0.07862171     0.27200
H264        H  0.20821878  0.43647639  0.02803281     0.16000
C265        C  0.05952151  0.20705845  0.11623848    -0.11200
C266        C  0.07608410  0.20015908  0.11615966     0.15300
C267        C  0.10436176  0.22028062  0.11082137     0.02200
C268        C  0.11540948  0.24711605  0.10825808    -0.15600
C269        C  0.09893001  0.25441282  0.11029347    -0.10400
C270        C  0.07061215  0.23383051  0.11340527     0.08900
C271        C  0.06366973  0.17309482  0.12505632     0.10000
S272        S  0.12762151  0.21358970  0.10910075    -0.24700
H273        H  0.13715278  0.26288882  0.10652502     0.20200
S274        S  0.04777329  0.24126483  0.11705205    -0.30400
H275        H  0.03786184  0.19186725  0.12022280     0.10500
C276        C  0.06704595  0.17107612  0.15258667     0.03700
C277        C  0.05580967  0.14545546  0.16009321    -0.12700
C278        C  0.04087464  0.12138457  0.14082681    -0.08400
C279        C  0.03732884  0.12352901  0.11331855     0.07200
C280        C  0.04836434  0.14912946  0.10593104    -0.13500
S281        S  0.08499201  0.20111280  0.17860685    -0.30400
H282        H  0.05834108  0.14410870  0.18134435     0.11400
S283        S  0.02027591  0.09467512  0.08608259    -0.27500
H284        H  0.04567927  0.15049594  0.08475004     0.08700
H285        H  0.06526096  0.26521751  0.10348525     0.27100
H286        H  0.08590307  0.18885221  0.19906836     0.21900
H287        H  0.03132076  0.08326783  0.09203864     0.27200
H288        H  0.10900990  0.18514026  0.10203609     0.16000
C289        C  0.33496957  0.41637161  0.13542963    -0.11200
C290        C  0.32776991  0.43318508  0.13890908     0.15300
C291        C  0.34819653  0.46182768  0.14385980     0.02200
C292        C  0.37458429  0.47275140  0.14747617    -0.15600
C293        C  0.38162694  0.45589287  0.14495343    -0.10400
C294        C  0.36171137  0.42744151  0.13737422     0.08900
C295        C  0.29876666  0.42040541  0.13891792     0.10000
S296        S  0.34193260  0.48556140  0.14564809    -0.24700
H297        H  0.39619623  0.00374992  0.15376097     0.20200
S298        S  0.36929835  0.40433781  0.12877348    -0.30400
H299        H  0.31963412  0.39441855  0.13111194     0.10500
C300        C  0.28343957  0.40334011  0.11485930     0.03700
C301        C  0.25623099  0.39195993  0.11611291    -0.12700
C302        C  0.24393086  0.39741995  0.14070656    -0.08400
C303        C  0.25950091  0.41513241  0.16441439     0.07200
C304        C  0.28640330  0.42579832  0.16354989    -0.13500
S305        S  0.29857146  0.39671578  0.08212445    -0.30400
H306        H  0.24428912  0.37855600  0.09790148     0.11400
S307        S  0.24680939  0.42624540  0.19553898    -0.27500
H308        H  0.29806883  0.43903741  0.18202068     0.08700
H309        H  0.39580049  0.42360639  0.11721342     0.27100
H310        H  0.27504673  0.37861985  0.06688785     0.21900
H311        H  0.22993455  0.42589867  0.18034581     0.27200
H312        H  0.32142803  0.46924157  0.12620583     0.16000
C313        C  0.12390053  0.44850417  0.15928934    -0.11200
C314        C  0.09742408  0.43511299  0.17163037     0.15300
C315        C  0.08442502  0.41104633  0.18431740     0.02200
C316        C  0.09746739  0.40001946  0.18277115    -0.15600
C317        C  0.12347715  0.41268045  0.16922055    -0.10400
C318        C  0.13718677  0.43784488  0.15840783     0.08900
C319        C  0.08389190  0.44667500  0.17087673     0.10000
S320        S  0.05090426  0.39297080  0.20192474    -0.24700
H321        H  0.08675879  0.38072121  0.19104255     0.20200
S322        S  0.17166438  0.45735334  0.14341899    -0.30400
H323        H  0.13423553  0.46735665  0.15018005     0.10500
C324        C  0.09132955  0.47055898  0.18880999     0.03700
C325        C  0.07741461  0.48032492  0.18844603    -0.12700
C326        C  0.05586089  0.46656545  0.17077616    -0.08400
C327        C  0.04853019  0.44268129  0.15261638     0.07200
C328        C  0.06284626  0.43320717  0.15258671    -0.13500
S329        S  0.11754086  0.48775969  0.21338550    -0.30400
H330        H  0.08300178  0.49857219  0.20246495     0.11400
S331        S  0.51688783  0.41706773  0.13096217    -0.27500
H332        H  0.05700057  0.41471348  0.13890527     0.08700
H333        H  0.17916018  0.44726817  0.15928293     0.27100
H334        H  0.12105681  0.01517250  0.21564934     0.21900
H335        H  0.50047711  0.42032458  0.15194715     0.27200
H336        H  0.05252979  0.41606490  0.21181860     0.16000
C337        C  0.05864309  0.21219193  0.40258405    -0.11200
C338        C  0.06977522  0.20433306  0.41598686     0.15300
C339        C  0.09363462  0.22476049  0.43061582     0.02200
C340        C  0.10708501  0.25239658  0.42916874    -0.15600
C341        C  0.09669954  0.26013392  0.41429986    -0.10400
C342        C  0.07136461  0.23976111  0.40243093     0.08900
C343        C  0.05740821  0.17501865  0.41237403     0.10000
S344        S  0.10816095  0.21683598  0.45093155    -0.24700
H345        H  0.12629545  0.26792770  0.43868552     0.20200
S346        S  0.05437707  0.24782210  0.38676085    -0.30400
H347        H  0.04012715  0.19674426  0.39175196     0.10500
C348        C  0.03065855  0.15474936  0.42288329     0.03700
C349        C  0.02045901  0.12753196  0.41977364    -0.12700
C350        C  0.03649720  0.12022930  0.40658700    -0.08400
C351        C  0.06271176  0.14025069  0.39477635     0.07200
C352        C  0.07286443  0.16735002  0.39779246    -0.13500
S353        S  0.01012806  0.16367371  0.44211303    -0.30400
H354        H  0.00049489  0.11213610  0.42914743     0.11400
S355        S  0.08415380  0.13245945  0.37579246    -0.27500
H356        H  0.09313273  0.18269810  0.38896292     0.08700
H357        H  0.06642524  0.27352511  0.40312503     0.27100
H358        H  0.49179457  0.13961478  0.45172445     0.21900
H359        H  0.06300281  0.10511687  0.36613260     0.27200
H360        H  0.08358244  0.19196925  0.45864747     0.16000
C361        C  0.33770226  0.41600016  0.37473859    -0.11200
C362        C  0.33527965  0.43227425  0.36261855     0.15300
C363        C  0.35887416  0.45857533  0.35655388     0.02200
C364        C  0.38383191  0.46863332  0.36464141    -0.15600
C365        C  0.38619267  0.45300040  0.37848662    -0.10400
C366        C  0.36269397  0.42552032  0.38201024     0.08900
C367        C  0.30756475  0.42227795  0.36007882     0.10000
S368        S  0.35843138  0.48054853  0.33909165    -0.24700
H369        H  0.40143503  0.48926852  0.36074937     0.20200
S370        S  0.36321945  0.40179778  0.39597000    -0.30400
H371        H  0.31956250  0.39589336  0.37947690     0.10500
C372        C  0.28819871  0.39691841  0.34439632     0.03700
C373        C  0.26109098  0.38628919  0.34685464    -0.12700
C374        C  0.25298351  0.40063315  0.36444201    -0.08400
C375        C  0.27292352  0.42705312  0.37799535     0.07200
C376        C  0.29966506  0.43720065  0.37631549    -0.13500
S377        S  0.29796142  0.37806085  0.32133999    -0.30400
H378        H  0.24596249  0.36631958  0.33596269     0.11400
S379        S  0.26561501  0.44905709  0.39731268    -0.27500
H380        H  0.31439584  0.45677651  0.38821608     0.08700
H381        H  0.33197499  0.91652101  0.44930397     0.27100
H382        H  0.27168079  0.35408285  0.31531380     0.21900
H383        H  0.24441257  0.43869385  0.38050781     0.27200
H384        H  0.33536049  0.45939801  0.32396983     0.16000
C385        C  0.07267728  0.39099331  0.39598059    -0.11200
C386        C  0.08691347  0.41794024  0.39035091     0.15300
C387        C  0.11439705  0.43304678  0.37996142     0.02200
C388        C  0.12724859  0.42157846  0.37706219    -0.15600
C389        C  0.11314821  0.39491525  0.38329147    -0.10400
C390        C  0.08534898  0.37925500  0.39217596     0.08900
C391        C  0.07336794  0.43049315  0.39768841     0.10000
S392        S  0.13424981  0.46711181  0.37018858    -0.24700
H393        H  0.14853056  0.43361137  0.37016760     0.20200
S394        S  0.06530483  0.34466464  0.40032864    -0.30400
H395        H  0.05164272  0.37918207  0.40393930     0.10500
C396        C  0.05165936  0.42165139  0.38261517     0.03700
C397        C  0.04024443  0.43482238  0.38996005    -0.12700
C398        C  0.04968380  0.45645234  0.41245096    -0.08400
C399        C  0.07134109  0.46510541  0.42756003     0.07200
C400        C  0.08268937  0.45196680  0.42022125    -0.13500
S401        S  0.03897549  0.39417472  0.35342945    -0.30400
H402        H  0.02369102  0.42809588  0.37827094     0.11400
S403        S  0.08642363  0.49370660  0.45536626    -0.27500
H404        H  0.09935557  0.45889956  0.43188346     0.08700
H405        H  0.07954859  0.33766236  0.38078121     0.27100
H406        H  0.01615797  0.39121359  0.34976945     0.21900
H407        H  0.08378304  0.50925182  0.44190642     0.27200
H408        H  0.11255943  0.46436444  0.36278414     0.16000
C409        C  0.37833897  0.09136165  0.21117788    -0.11200
C410        C  0.39981439  0.10214826  0.22773220     0.15300
C411        C  0.40833734  0.12497039  0.24863244     0.02200
C412        C  0.39513416  0.13613718  0.25266140    -0.15600
C413        C  0.37401320  0.12565700  0.23578356    -0.10400
C414        C  0.36530057  0.10273451  0.21510610     0.08900
C415        C  0.41320266  0.08953522  0.22242653     0.10000
S416        S  0.43637481  0.14133401  0.27032384    -0.24700
H417        H  0.40207966  0.15390696  0.26832657     0.20200
S418        S  0.33735156  0.08684162  0.19356290    -0.30400
H419        H  0.37156648  0.07381849  0.19520648     0.10500
C420        C  0.41014846  0.07417991  0.24238809     0.03700
C421        C  0.42459852  0.06419370  0.23722720    -0.12700
C422        C  0.44198917  0.06888483  0.21225503    -0.08400
C423        C  0.44469475  0.08417349  0.19214095     0.07200
C424        C  0.43007582  0.09387701  0.19728357    -0.13500
S425        S  0.38734538  0.06677249  0.27417919    -0.30400
H426        H  0.42198329  0.05228446  0.25258482     0.11400
S427        S  0.46753692  0.09352775  0.16025753    -0.27500
H428        H  0.43258727  0.10577711  0.18194629     0.08700
H429        H  0.32425110  0.09534304  0.21301220     0.27100
H430        H  0.38868309  0.04823622  0.28312959     0.21900
H431        H  0.48886574  0.10078910  0.17453430     0.27200
H432        H  0.45090252  0.13487843  0.25035209     0.16000
C433        C  0.43335306  0.32351210  0.26662007    -0.11200
C434        C  0.41746387  0.33176233  0.27277625     0.15300
C435        C  0.39038519  0.31333841  0.28379466     0.02200
C436        C  0.37898262  0.28626600  0.28523612    -0.15600
C437        C  0.39430441  0.27744604  0.27654393    -0.10400
C438        C  0.42216372  0.29674621  0.26902385     0.08900
C439        C  0.42825298  0.35773475  0.26307317     0.10000
S440        S  0.36908692  0.32282110  0.29473831    -0.24700
H441        H  0.35763110  0.27155523  0.29129243     0.20200
S442        S  0.44395315  0.28779153  0.26089745    -0.30400
H443        H  0.45425329  0.33762147  0.25857208     0.10500
C444        C  0.44991394  0.38343835  0.27580832     0.03700
C445        C  0.45977089  0.40724395  0.26486891    -0.12700
C446        C  0.44916679  0.40582434  0.24057352    -0.08400
C447        C  0.42870074  0.37969993  0.22674403     0.07200
C448        C  0.41791462  0.35621296  0.23870238    -0.13500
S449        S  0.46472122  0.38591432  0.30618576    -0.30400
H450        H  0.47569796  0.42701417  0.27541361     0.11400
S451        S  0.41715294  0.37450106  0.19236789    -0.27500
H452        H  0.40214288  0.33636476  0.22804256     0.08700
H453        H  0.42741311  0.26469817  0.27597293     0.27100
H454        H  0.48703998  0.41387937  0.30650900     0.21900
H455        H  0.44314953  0.39467676  0.18037946     0.27200
H456        H  0.39020243  0.35087982  0.30148748     0.16000
C457        C  0.15187214  0.07477968  0.19029202    -0.11200
C458        C  0.16125997  0.07804547  0.21643974     0.15300
C459        C  0.14285407  0.06927098  0.24114204     0.02200
C460        C  0.11644020  0.05950725  0.23968922    -0.15600
C461        C  0.10746835  0.05741985  0.21379283    -0.10400
C462        C  0.12515263  0.06385566  0.18851989     0.08900
C463        C  0.19077630  0.09323381  0.21811467     0.10000
S464        S  0.15182604  0.06969261  0.27503561    -0.24700
H465        H  0.10291627  0.05381058  0.25901335     0.20200
S466        S  0.11466821  0.05773731  0.15310806    -0.30400
H467        H  0.16555041  0.08102095  0.17108894     0.10500
C468        C  0.20482864  0.08434037  0.20144165     0.03700
C469        C  0.23277050  0.09991825  0.20413713    -0.12700
C470        C  0.24691438  0.12413649  0.22319997    -0.08400
C471        C  0.23287707  0.13322588  0.23918445     0.07200
C472        C  0.20522843  0.11780044  0.23653278    -0.13500
S473        S  0.18701325  0.05250327  0.17795832    -0.30400
H474        H  0.24349546  0.09284491  0.19218755     0.11400
S475        S  0.24925036  0.16455363  0.26336406    -0.27500
H476        H  0.19483375  0.12513528  0.24892452     0.08700
H477        H  0.08808264  0.03393547  0.15834136     0.27100
H478        H  0.20960114  0.05404841  0.16714582     0.21900
H479        H  0.27459043  0.17846441  0.24781658     0.27200
H480        H  0.17010218  0.06494870  0.26276379     0.16000
C481        C  0.37352793  0.08580663  0.49000017    -0.11200
C482        C  0.39438597  0.09378067  0.46837126     0.15300
C483        C  0.39932724  0.11008768  0.44816883     0.02200
C484        C  0.38369842  0.11849211  0.45045382    -0.15600
C485        C  0.36321377  0.11102685  0.47259752    -0.10400
C486        C  0.35776569  0.09387359  0.49208876     0.08900
C487        C  0.40859953  0.08236185  0.46585662     0.10000
S488        S  0.42552808  0.12112651  0.41936273    -0.24700
H489        H  0.38823044  0.13182202  0.43561050     0.20200
S490        S  0.31689353  0.06503866  0.98321919    -0.30400
H491        H  0.36907172  0.07261068  0.50500044     0.10500
C492        C  0.43054632  0.09636714  0.97941234     0.03700
C493        C  0.44036087  0.07975324  0.48192202    -0.12700
C494        C  0.43284906  0.05760956  0.46072257    -0.08400
C495        C  0.41240728  0.04749037  0.44253023     0.07200
C496        C  0.40091209  0.06014931  0.44501543    -0.13500
S497        S  0.44148387  0.12690633  0.00357937    -0.30400
H498        H  0.45998227  0.09468733  0.99161423     0.11400
S499        S  0.39890135  0.01753433  0.41667202    -0.27500
H500        H  0.38526124  0.05215366  0.43100408     0.08700
H501        H  0.30892493  0.07591286  0.96947681     0.27100
H502        H  0.46302107  0.13119209  0.01396559     0.21900
H503        H  0.40007490  0.00336603  0.43432688     0.27200
H504        H  0.44289036  0.12164761  0.43383651     0.16000
C505        C  0.40871937  0.30007247  0.99134205    -0.11200
C506        C  0.40017933  0.30992730  0.48248265     0.15300
C507        C  0.37275380  0.28908193  0.47622966     0.02200
C508        C  0.36046255  0.26168435  0.47754331    -0.15600
C509        C  0.37505634  0.25434576  0.48404625    -0.10400
C510        C  0.39649492  0.27253194  0.99097862     0.08900
C511        C  0.41475390  0.33936947  0.48083741     0.10000
S512        S  0.35244101  0.29586177  0.46583879    -0.24700
H513        H  0.33933070  0.24586790  0.47337888     0.20200
S514        S  0.41812868  0.26446147  0.99203952    -0.30400
H515        H  0.43034245  0.31543628  0.99313316     0.10500
C516        C  0.40859338  0.35474502  0.50040577     0.03700
C517        C  0.42226625  0.38214057  0.49676653    -0.12700
C518        C  0.44235713  0.39463818  0.47433361    -0.08400
C519        C  0.44881029  0.37934144  0.45520945     0.07200
C520        C  0.43530433  0.35215411  0.45888868    -0.13500
S521        S  0.38364127  0.33966106  0.53018055    -0.30400
H522        H  0.41706454  0.39378153  0.51113385     0.11400
S523        S  0.47349199  0.39320708  0.42510110    -0.27500
H524        H  0.44023537  0.34053947  0.44388047     0.08700
H525        H  0.40278298  0.23930941  0.97450657     0.27100
H526        H  0.38721610  0.36340828  0.54307301     0.21900
H527        H  0.46378728  0.40469826  0.41597436     0.27200
H528        H  0.37374226  0.31919755  0.45237340     0.16000
C529        C  0.15005849  0.08705816  0.48711239    -0.11200
C530        C  0.15007680  0.08489298  0.51587984     0.15300
C531        C  0.12351042  0.06643961  0.03348883     0.02200
C532        C  0.09978639  0.05562437  0.02126778    -0.15600
C533        C  0.10150658  0.06205382  0.49213396    -0.10400
C534        C  0.12624039  0.07582165  0.47504638     0.08900
C535        C  0.17621716  0.09631114  0.52619772     0.10000
S536        S  0.12007465  0.05915201  0.06950945    -0.24700
H537        H  0.08064405  0.04358414  0.03380045     0.20200
S538        S  0.12891961  0.07897879  0.43744802    -0.30400
H539        H  0.16882071  0.09715926  0.47368907     0.10500
C540        C  0.18202144  0.07932551  0.52943524     0.03700
C541        C  0.20884191  0.09091374  0.53235275    -0.12700
C542        C  0.23001066  0.11903481  0.53179754    -0.08400
C543        C  0.22193356  0.13167572  0.03524495     0.07200
C544        C  0.19544665  0.12086203  0.03216494    -0.13500
S545        S  0.15599209  0.04266230  0.52637743    -0.30400
H546        H  0.21383739  0.07780776  0.53222146     0.11400
S547        S  0.24778160  0.16822877  0.03750109    -0.27500
H548        H  0.19139149  0.13465652  0.03170626     0.08700
H549        H  0.10372606  0.05362193  0.43090977     0.27100
H550        H  0.17184132  0.03666363  0.53272455     0.21900
H551        H  0.26524363  0.16963202  0.05274891     0.27200
H552        H  0.14698595  0.08044030  0.07625874     0.16000
C553        C  0.28624940  0.15241920  0.40643863    -0.11200
C554        C  0.28867178  0.13569487  0.38494735     0.15300
C555        C  0.29122534  0.11755911  0.39243508     0.02200
C556        C  0.29786492  0.12123958  0.42016855    -0.15600
C557        C  0.30158088  0.14248846  0.44036742    -0.10400
C558        C  0.29180478  0.15559085  0.43441258     0.08900
C559        C  0.29937342  0.14554206  0.35679229     0.10000
S560        S  0.28959391  0.09193138  0.36637850    -0.24700
H561        H  0.30034726  0.10761535  0.42556488     0.20200
S562        S  0.28693823  0.17803986  0.45903658    -0.30400
H563        H  0.28327999  0.16573569  0.40082900     0.10500
C564        C  0.28604654  0.14944810  0.34113997     0.03700
C565        C  0.29946177  0.16263097  0.31652510    -0.12700
C566        C  0.32429820  0.16883638  0.30554045    -0.08400
C567        C  0.33947381  0.16955610  0.32413171     0.07200
C568        C  0.32642237  0.15701075  0.34904287    -0.13500
S569        S  0.25199924  0.13720574  0.35190028    -0.30400
H570        H  0.29030298  0.16765937  0.30559123     0.11400
S571        S  0.37544219  0.18719694  0.31936705    -0.27500
H572        H  0.33776839  0.15699786  0.36313547     0.08700
H573        H  0.29310678  0.17769706  0.48536276     0.27100
H574        H  0.24874004  0.14478854  0.32841307     0.21900
H575        H  0.38240136  0.20378199  0.29883531     0.27200
H576        H  0.27673968  0.09234042  0.34595385     0.16000
C577        C  0.38080560  0.19788365  0.07849753    -0.11200
C578        C  0.36363506  0.18280503  0.10100150     0.15300
C579        C  0.33727849  0.15850486  0.09607809     0.02200
C580        C  0.32714079  0.15218790  0.06977438    -0.15600
C581        C  0.34301857  0.16922117  0.04790396    -0.10400
C582        C  0.37134111  0.19044770  0.05133589     0.08900
C583        C  0.37081039  0.19504474  0.13033552     0.10000
S584        S  0.31502964  0.13586060  0.12329057    -0.24700
H585        H  0.30680736  0.13350924  0.06647909     0.20200
S586        S  0.39744481  0.20921153  0.02346927    -0.30400
H587        H  0.40149856  0.21586118  0.08233177     0.10500
C588        C  0.38567823  0.19214785  0.14450099     0.03700
C589        C  0.38179703  0.19299376  0.17436948    -0.12700
C590        C  0.36121432  0.19352026  0.18917626    -0.08400
C591        C  0.35149682  0.20306624  0.17540874     0.07200
C592        C  0.35661398  0.20367709  0.14585627    -0.13500
S593        S  0.40689806  0.18439106  0.12455859    -0.30400
H594        H  0.39410115  0.19223478  0.18577819     0.11400
S595        S  0.33112715  0.21308185  0.19205525    -0.27500
H596        H  0.34674010  0.20770199  0.13442986     0.08700
H597        H  0.38415106  0.19228642  0.99876576     0.27100
H598        H  0.41215913  0.17887609  0.14826528     0.21900
H599        H  0.33202642  0.21342227  0.22120623     0.27200
H600        H  0.33555037  0.14170935  0.13773790     0.16000
C601        C  0.31089843  0.14770526  0.96790469     0.30200
C602        C  0.33149550  0.16445953  0.52168971     0.30200
C603        C  0.32819717  0.13935758  0.97029961    -0.06000
C604        C  0.33019122  0.17867490  0.97833697    -0.06800
C605        C  0.28953099  0.13507652  0.99288455    -0.06700
C606        C  0.33712963  0.14681724  0.50101844    -0.06100
C607        C  0.34274223  0.18808205  0.50494249    -0.06800
C608        C  0.30054419  0.14728845  0.52060983    -0.06700
C609        C  0.35018322  0.13711875  0.50332211    -0.32100
N610        N  0.35235543  0.12568462  0.97052998     0.14400
C611        C  0.33885462  0.12730254  0.95345480    -0.32100
H612        H  0.33719813  0.12026194  0.93065583     0.16300
C613        C  0.35832883  0.21612884  0.51056434    -0.31100
N614        N  0.36138093  0.22611768  0.48635625     0.13100
C615        C  0.34088604  0.20284714  0.96841425    -0.31100
C616        C  0.27810930  0.14064009  0.53906294    -0.31400
N617        N  0.25671508  0.12785731  0.52287647     0.13600
H618        H  0.27767959  0.14612248  0.56215263     0.16300
C619        C  0.26239122  0.12189770  0.99568443    -0.31400
H620        H  0.24965045  0.11461918  0.97838164     0.16300
H621        H  0.33830084  0.20503068  0.94766638     0.16300
H622        H  0.35928298  0.14016834  0.52225596     0.16300
H623        H  0.36651981  0.22838459  0.53088608     0.16300
C624        C  0.35108473  0.18826384  0.72124292     0.30200
C625        C  0.33258847  0.17570178  0.77613235     0.30200
C626        C  0.35613253  0.17043976  0.73104907    -0.06000
C627        C  0.36296808  0.21239216  0.74491865    -0.06800
C628        C  0.32005210  0.17063618  0.72739071    -0.06700
C629        C  0.34664642  0.16411537  0.75928276    -0.06100
C630        C  0.35311236  0.20626084  0.77277417    -0.06800
C631        C  0.31071560  0.16410363  0.75538791    -0.06700
C632        C  0.35027071  0.14608613  0.76347828    -0.32100
N633        N  0.36165591  0.14128064  0.73877366     0.14400
C634        C  0.36469065  0.15543451  0.71871411    -0.32100
H635        H  0.37213942  0.15418551  0.69665201     0.16300
C636        C  0.36408759  0.23086147  0.79016659    -0.31100
N637        N  0.38097934  0.25150558  0.77328813     0.13100
C638        C  0.38046799  0.24035313  0.74565761    -0.31100
C639        C  0.28290755  0.14412571  0.75543272    -0.31400
N640        N  0.27481736  0.13997966  0.72920596     0.13600
H641        H  0.26914080  0.13269513  0.77299976     0.16300
C642        C  0.29740289  0.15538948  0.71146625    -0.31400
H643        H  0.29735889  0.15523958  0.68868977     0.16300
H644        H  0.39062022  0.25173746  0.72719709     0.16300
H645        H  0.34478589  0.13683986  0.78293062     0.16300
H646        H  0.35944559  0.23350011  0.81305970     0.16300
O647        O  0.03305135  0.47589371  0.89701683    -0.75100
O648        O  0.02931740  0.47240891  0.94512731    -0.54100
C649        C  0.03658534  0.46917185  0.91837960     0.78600
O650        O  0.04284642  0.09309282  0.92400933    -0.59700
O651        O  0.50513105  0.07367790  0.90224688    -0.52800
C652        C  0.02727884  0.09339788  0.91113783     0.70600
O653        O  0.07431495  0.06336269  0.96750654    -0.74300
O654        O  0.05391189  0.02402268  0.98679792    -0.54900
C655        C  0.07455136  0.04853796  0.98180393     0.76600
O656        O  0.50555236  0.00427043  0.83981095    -0.59400
O657        O  0.48466703  0.02304333  0.85178822    -0.52600
C658        C  0.49533791  0.01427689  0.83202151     0.73200
Zr659      Zr  0.01294121  0.49480388  0.88653484     2.54700
O660        O  0.05599595  0.01922936  0.85758508    -0.80000
O661        O  0.49046626  0.45113557  0.85348321    -0.93400
Zr662      Zr  0.04215791  0.06007435  0.94245741     2.64700
O663        O  0.08296413  0.08013128  0.91023369    -0.98400
O664        O  0.06226621  0.10136186  0.97654061    -0.80400
O665        O  0.03392052  0.01818510  0.93032170    -0.83800
O666        O  0.02034551  0.03653753  0.89816469    -2.18500
O667        O  0.40926140  0.45398579  0.91265371    -0.67200
O668        O  0.43082289  0.99313921  0.89290655    -0.51800
C669        C  0.40944113  0.46944594  0.89910720     0.71600
O670        O  0.47987597  0.01759209  0.53902087    -0.60100
O671        O  0.99984554  0.49635315  0.52877451    -0.52100
C672        C  0.49062285  0.50691715  0.54723036     0.73400
O673        O  0.45428047  0.04572800  0.98062825    -0.71500
O674        O  0.45531788  0.04404712  0.93164473    -0.50200
C675        C  0.44906570  0.04947749  0.95790930     0.74800
O676        O  0.43825295  0.42126676  0.95310408    -0.66800
O677        O  0.47386841  0.44066732  0.97980272    -0.54000
C678        C  0.45126287  0.41990020  0.96902075     0.73100
Zr679      Zr  0.44168621  0.45604705  0.93479000     2.77500
O680        O  0.40206990  0.43355590  0.96856978    -0.97600
O681        O  0.42142183  0.41641492  0.89837255    -0.78400
Zr682      Zr  0.47437411  0.02645524  0.99263581     2.70100
O683        O  0.42686883  0.49460663  0.51492206    -0.79600
O684        O  0.49242661  0.06638938  0.52182840    -0.98700
Zr685      Zr  0.00743640  0.49101809  0.97248631     2.21500
Zr686      Zr  0.47739439  0.02553629  0.90708313     2.11100
O687        O  0.45051943  0.49841734  0.94766879    -2.47400
O688        O  0.46257141  0.47903342  0.97947484    -0.79400
O689        O  0.46772966  0.48137079  0.89449563    -0.71600
O690        O  0.01633573  0.03496728  0.98279532    -2.32600
O691        O  0.48437156  0.46664084  0.92644087    -2.28800
O692        O  0.50011366  0.05051667  0.95131297    -0.73400
H693        H  0.03053743  0.04792456  0.88274980     0.78600
H694        H  0.02704406  0.04584764  0.49986345     0.79700
H695        H  0.43349948  0.49502082  0.95050136     0.81900
H696        H  0.48146956  0.44967918  0.92152288     0.79500
H697        H  0.04715570  0.10161528  0.98414954     0.42600
H698        H  0.00711095  0.08121412  0.50616516     0.41500
H699        H  0.42858602  0.50537984  0.53383040     0.41200
H700        H  0.39923906  0.44716098  0.97555639     0.39100
H701        H  0.43698098  0.41851625  0.88705465     0.42300
H702        H  0.48728708  0.43782468  0.86461724     0.37100
H703        H  0.06952412  0.02867000  0.87211865     0.43200
H704        H  0.07853052  0.08226607  0.89276340     0.39600
H705        H  0.38683529  0.41902134  0.95645138     0.44500
H706        H  0.50542764  0.45525162  0.83905476     0.43200
H707        H  0.09600092  0.09904064  0.91947608     0.43400
H708        H  0.47707984  0.06619437  0.52968819     0.43700
O709        O  0.03224517  0.47669042  0.65101619    -0.75100
O710        O  0.03171756  0.47963526  0.70008866    -0.54100
C711        C  0.03769632  0.47358805  0.67401864     0.78600
O712        O  0.04558046  0.09400691  0.66262571    -0.59700
O713        O  0.50639003  0.07371350  0.64187818    -0.52800
C714        C  0.03050728  0.09301589  0.64718182     0.70600
O715        O  0.07808780  0.06201014  0.70112924    -0.74300
O716        O  0.05910070  0.02904500  0.73053463    -0.54900
C717        C  0.07952906  0.04902783  0.71693452     0.76600
O718        O  0.00248702  0.99822173  0.58910459    -0.59400
O719        O  0.48089606  0.01930730  0.60049748    -0.52600
C720        C  0.49052787  0.00893700  0.58136697     0.73200
Zr721      Zr  0.00972262  0.49310463  0.63849971     2.54700
O722        O  0.05299730  0.01269972  0.60892866    -0.80000
O723        O  0.48774578  0.44820156  0.61144956    -0.93400
Zr724      Zr  0.04434573  0.06320062  0.68732597     2.64700
O725        O  0.08552536  0.08604391  0.65556414    -0.98400
O726        O  0.06525684  0.10374035  0.72254465    -0.80400
O727        O  0.03392085  0.02016986  0.67964184    -0.83800
O728        O  0.01976422  0.03517173  0.64555457    -2.18500
O729        O  0.41092912  0.45816689  0.66958448    -0.67200
O730        O  0.42863007  0.99763020  0.64755126    -0.51800
C731        C  0.40937111  0.47152188  0.65457214     0.71600
O732        O  0.48550449  0.02547142  0.79026076    -0.60100
O733        O  0.00697127  0.50584809  0.77930533    -0.52100
C734        C  0.49641505  0.51543590  0.79853335     0.73400
O735        O  0.45971137  0.05411832  0.73028972    -0.71500
O736        O  0.45869027  0.05094428  0.68139019    -0.50200
C737        C  0.45437580  0.05812626  0.70786804     0.74800
O738        O  0.44230786  0.43291701  0.71930222    -0.66800
O739        O  0.48239018  0.45467971  0.73825860    -0.54000
C740        C  0.45775465  0.43345560  0.73352513     0.73100
Zr741      Zr  0.44475159  0.46310953  0.69250788     2.77500
O742        O  0.40571667  0.44612106  0.72703153    -0.97600
O743        O  0.42221538  0.41940631  0.66237174    -0.78400
Zr744      Zr  0.47946110  0.03487988  0.74286562     2.70100
O745        O  0.43712723  0.51499681  0.77111106    -0.79600
O746        O  0.50727938  0.08054476  0.76906622    -0.98700
Zr747      Zr  0.01135347  0.49973096  0.72426600     2.21500
Zr748      Zr  0.47659260  0.02791819  0.65621617     2.11100
O749        O  0.45475854  0.50603880  0.70035221    -2.47400
O750        O  0.46948099  0.49077202  0.73411681    -0.79400
O751        O  0.46743877  0.48313052  0.64843067    -0.71600
O752        O  0.02161456  0.04291340  0.73138253    -2.32600
O753        O  0.48685448  0.47237359  0.68203211    -2.28800
O754        O  0.50196810  0.05544846  0.69850931    -0.73400
H755        H  0.02930694  0.04472724  0.62871212     0.78600
H756        H  0.03275884  0.05411798  0.74747507     0.79700
H757        H  0.43786493  0.50288151  0.70376101     0.81900
H758        H  0.48357967  0.45523791  0.67959645     0.79500
H759        H  0.05347792  0.10878148  0.72463187     0.42600
H760        H  0.98885409  0.07532706  0.78327536     0.41500
H761        H  0.43981420  0.51317441  0.79000120     0.41200
H762        H  0.40349817  0.46027380  0.73039340     0.39100
H763        H  0.43322887  0.42375006  0.64379313     0.42300
H764        H  0.50061552  0.45088261  0.59477452     0.37100
H765        H  0.04808350  0.00417122  0.58888853     0.43200
H766        H  0.07935946  0.08102041  0.63595065     0.39600
H767        H  0.39006376  0.43028846  0.71613761     0.44500
H768        H  0.47264130  0.44440086  0.60298149     0.43200
H769        H  0.09441404  0.10574182  0.66010503     0.43400
H770        H  0.49896590  0.07812253  0.78904940     0.43700
C771        C  0.14839180  0.34095760  0.85861375     0.30200
C772        C  0.15837432  0.36512524  0.91370290     0.30200
C773        C  0.13986144  0.35902749  0.86908493    -0.06000
C774        C  0.13560097  0.32189239  0.88165460    -0.06800
C775        C  0.17878514  0.36163495  0.86479875    -0.06700
C776        C  0.14531679  0.37134246  0.89705039    -0.06100
C777        C  0.14116983  0.33378421  0.90958481    -0.06800
C778        C  0.18383341  0.37366561  0.89355478    -0.06700
C779        C  0.13629340  0.38622490  0.90334609    -0.32100
N780        N  0.12491071  0.38289411  0.87998355     0.14400
C781        C  0.12739106  0.36682817  0.85861881    -0.32100
H782        H  0.12014962  0.36092503  0.83738439     0.16300
C783        C  0.12829155  0.31261819  0.92642924    -0.31100
N784        N  0.11434034  0.28850140  0.90898209     0.13100
C785        C  0.11908405  0.29410109  0.88156605    -0.31100
C786        C  0.21137716  0.39020277  0.89539689    -0.31400
N787        N  0.22333034  0.39036893  0.86874889     0.13600
H788        H  0.22242112  0.40076358  0.91457551     0.16300
C789        C  0.20375704  0.37312484  0.84980843    -0.31400
H790        H  0.20757321  0.36955987  0.82689836     0.16300
H791        H  0.11115962  0.27893280  0.86284020     0.16300
H792        H  0.13691699  0.39771507  0.92380280     0.16300
H793        H  0.12842821  0.31453840  0.94957152     0.16300
C794        C  0.15042110  0.35595258  0.61462090     0.30200
C795        C  0.13933079  0.34138782  0.66833635     0.30200
C796        C  0.13669496  0.36556472  0.63737913    -0.06000
C797        C  0.13216314  0.32480507  0.61636469    -0.06800
C798        C  0.17530799  0.36808229  0.63057176    -0.06700
C799        C  0.13037583  0.35740615  0.66441284    -0.06100
C800        C  0.12743765  0.31795387  0.64384938    -0.06800
C801        C  0.16972365  0.35990161  0.65767310    -0.06700
C802        C  0.12069738  0.36984292  0.68231557    -0.32100
N803        N  0.12223545  0.38641088  0.66697976     0.14400
C804        C  0.13291962  0.38476286  0.64016811    -0.32100
H805        H  0.13815733  0.39750884  0.62424501     0.16300
C806        C  0.11696541  0.29120411  0.64136643    -0.31100
N807        N  0.11280305  0.28048114  0.61351770     0.13100
C808        C  0.12243821  0.30084271  0.59760766    -0.31100
C809        C  0.19420994  0.37042030  0.66692039    -0.31400
N810        N  0.21438254  0.38608112  0.64713329     0.13600
H811        H  0.19717734  0.36632469  0.68609936     0.16300
C812        C  0.20300055  0.38505414  0.62511448    -0.31400
H813        H  0.21419639  0.39554510  0.60620974     0.16300
H814        H  0.12336927  0.29872984  0.57431847     0.16300
H815        H  0.11407716  0.36782034  0.70492616     0.16300
H816        H  0.11299920  0.28014553  0.65856182     0.16300
C817        C  0.14291796  0.30528020  0.78226653    -0.11200
C818        C  0.12212104  0.30396931  0.77504290     0.15300
C819        C  0.10432437  0.30393581  0.79688153     0.02200
C820        C  0.11218319  0.31283954  0.82470712    -0.15600
C821        C  0.13830045  0.32384344  0.83014383    -0.10400
C822        C  0.15094106  0.31474874  0.81040351     0.08900
C823        C  0.12592192  0.31362936  0.74818502     0.10000
S824        S  0.07462541  0.29837222  0.79007107    -0.24700
H825        H  0.09901319  0.31385839  0.84155075     0.20200
S826        S  0.17550059  0.31290925  0.81921301    -0.30400
H827        H  0.15497329  0.30242189  0.76550830     0.10500
C828        C  0.14769488  0.34124277  0.74419222     0.03700
C829        C  0.15040931  0.35048783  0.71891884    -0.12700
C830        C  0.13179025  0.33290246  0.69799081    -0.08400
C831        C  0.10691821  0.30774160  0.70555719     0.07200
C832        C  0.10537154  0.29728704  0.72923150    -0.13500
S833        S  0.17146032  0.36522849  0.77147325    -0.30400
H834        H  0.16708168  0.37146958  0.71543141     0.11400
S835        S  0.07574492  0.28924205  0.68844934    -0.27500
H836        H  0.08725992  0.27718035  0.73412678     0.08700
H837        H  0.16794295  0.31165845  0.84881311     0.27100
H838        H  0.18778424  0.38818356  0.75621154     0.21900
H839        H  0.08266767  0.31132963  0.67663346     0.27200
H840        H  0.08945707  0.32167824  0.77554367     0.16000
C841        C  0.13715992  0.37023377  0.99227524    -0.11200
C842        C  0.16226229  0.38920784  0.00406416     0.15300
C843        C  0.18562957  0.40558612  0.98615137     0.02200
C844        C  0.18379816  0.39928513  0.95643354    -0.15600
C845        C  0.15924517  0.37654703  0.94472140    -0.10400
C846        C  0.13501387  0.36453845  0.96301564     0.08900
C847        C  0.16860051  0.38787822  0.53492229     0.10000
S848        S  0.21821923  0.43330734  0.99996009    -0.24700
H849        H  0.20153147  0.41237220  0.94286965     0.20200
S850        S  0.10018220  0.34044122  0.95283214    -0.30400
H851        H  0.11888868  0.35759046  0.00581916     0.10500
C852        C  0.14926722  0.38575439  0.55582283     0.03700
C853        C  0.14049310  0.37015077  0.57771987    -0.12700
C854        C  0.15563782  0.36359672  0.58459369    -0.08400
C855        C  0.17535265  0.36564800  0.56347623     0.07200
C856        C  0.18157829  0.37792037  0.53891179    -0.13500
S857        S  0.13360311  0.40031817  0.55285971    -0.30400
H858        H  0.12157566  0.36316974  0.58953891     0.11400
S859        S  0.19085266  0.35027024  0.56333398    -0.27500
H860        H  0.19500477  0.37769425  0.52170321     0.08700
H861        H  0.10259336  0.33524152  0.92302269     0.27100
H862        H  0.11881322  0.39442297  0.57979190     0.21900
H863        H  0.17580379  0.33514790  0.58658541     0.27200
H864        H  0.21347995  0.43816977  0.52693102     0.16000
C865        C  0.06014537  0.20520158  0.61302299    -0.11200
C866        C  0.07617971  0.19727993  0.61029149     0.15300
C867        C  0.10411582  0.21650824  0.60236427     0.02200
C868        C  0.11562653  0.24355778  0.59997769    -0.15600
C869        C  0.09986232  0.25195302  0.60475486    -0.10400
C870        C  0.07165132  0.23212777  0.61021368     0.08900
C871        C  0.06407498  0.17042679  0.61965349     0.10000
S872        S  0.12650464  0.20838847  0.59743986    -0.24700
H873        H  0.13734618  0.25869903  0.59651233     0.20200
S874        S  0.04988382  0.24108646  0.61713704    -0.30400
H875        H  0.03874722  0.19075637  0.61906933     0.10500
C876        C  0.06780182  0.16900369  0.64730485     0.03700
C877        C  0.05696680  0.14368572  0.65534979    -0.12700
C878        C  0.04180579  0.11922970  0.63666649    -0.08400
C879        C  0.03772793  0.12071250  0.60905628     0.07200
C880        C  0.04862261  0.14608973  0.60101948    -0.13500
S881        S  0.08579050  0.19947795  0.67277138    -0.30400
H882        H  0.05993126  0.14286063  0.67663321     0.11400
S883        S  0.01991109  0.09126173  0.58258092    -0.27500
H884        H  0.04556116  0.14695984  0.57978711     0.08700
H885        H  0.06629935  0.26347137  0.60105927     0.27100
H886        H  0.08212816  0.18673536  0.69598651     0.21900
H887        H  0.03009714  0.07928846  0.58931936     0.27200
H888        H  0.10689679  0.18029322  0.58904822     0.16000
C889        C  0.33426876  0.41971645  0.64223220    -0.11200
C890        C  0.32726242  0.43664844  0.64543428     0.15300
C891        C  0.34804457  0.46533110  0.64887886     0.02200
C892        C  0.37486688  0.47623374  0.65026295    -0.15600
C893        C  0.38176099  0.45922976  0.64779222    -0.10400
C894        C  0.36112297  0.43058056  0.64266402     0.08900
C895        C  0.29812892  0.42366814  0.64560972     0.10000
S896        S  0.34168382  0.48914577  0.65208128    -0.24700
H897        H  0.38902390  0.00140040  0.66007902     0.20200
S898        S  0.36769340  0.40668833  0.63585152    -0.30400
H899        H  0.31860646  0.39772792  0.63925173     0.10500
C900        C  0.28310277  0.40696687  0.62128116     0.03700
C901        C  0.25566154  0.39485367  0.62243829    -0.12700
C902        C  0.24264474  0.39901836  0.64733057    -0.08400
C903        C  0.25777119  0.41592466  0.67162186     0.07200
C904        C  0.28510515  0.42767954  0.67064227    -0.13500
S905        S  0.29901516  0.40180107  0.58826248    -0.30400
H906        H  0.24414383  0.38198827  0.60381956     0.11400
S907        S  0.24380276  0.42438494  0.70389391    -0.27500
H908        H  0.29647309  0.44045639  0.68941720     0.08700
H909        H  0.39334164  0.42429913  0.62163600     0.27100
H910        H  0.27528982  0.38177170  0.57368822     0.21900
H911        H  0.22670707  0.42445950  0.68966388     0.27200
H912        H  0.31945365  0.47237161  0.63490744     0.16000
C913        C  0.11738236  0.44166530  0.67105187    -0.11200
C914        C  0.08952859  0.42727321  0.67725718     0.15300
C915        C  0.07341059  0.40045670  0.68488006     0.02200
C916        C  0.08493114  0.38780670  0.68339654    -0.15600
C917        C  0.11252040  0.40172255  0.67554202    -0.10400
C918        C  0.12904456  0.42942706  0.67085090     0.08900
C919        C  0.07778257  0.44043586  0.67492591     0.10000
S920        S  0.03802566  0.38130281  0.69627961    -0.24700
H921        H  0.07212278  0.36662446  0.68723944     0.20200
S922        S  0.16518019  0.45003008  0.66431082    -0.30400
H923        H  0.13009701  0.46251350  0.66603983     0.10500
C924        C  0.08401452  0.46338570  0.69403614     0.03700
C925        C  0.07166786  0.47445919  0.69189676    -0.12700
C926        C  0.05253370  0.46281235  0.67154522    -0.08400
C927        C  0.04659197  0.44001415  0.65211064     0.07200
C928        C  0.05961715  0.42943110  0.65366850    -0.13500
S929        S  0.10627216  0.47754077  0.72251141    -0.30400
H930        H  0.07633487  0.49191601  0.70688210     0.11400
S931        S  0.51973856  0.42177677  0.62840884    -0.27500
H932        H  0.05475580  0.41177023  0.63892289     0.08700
H933        H  0.16761793  0.43446012  0.67808052     0.27100
H934        H  0.10712563  0.99926292  0.73371969     0.21900
H935        H  0.50194907  0.42424839  0.64763203     0.27200
H936        H  0.03977050  0.40407429  0.70906805     0.16000
C937        C  0.05860929  0.21329473  0.90780668    -0.11200
C938        C  0.07089769  0.20546442  0.91902702     0.15300
C939        C  0.09595182  0.22600852  0.93153032     0.02200
C940        C  0.10928484  0.25363179  0.92993934    -0.15600
C941        C  0.09777653  0.26126121  0.91685012    -0.10400
C942        C  0.07147536  0.24088587  0.90724041     0.08900
C943        C  0.05823987  0.17598966  0.91530624     0.10000
S944        S  0.11222899  0.21823395  0.94906113    -0.24700
H945        H  0.12928929  0.26919574  0.93771274     0.20200
S946        S  0.05364180  0.24903058  0.89353903    -0.30400
H947        H  0.03913882  0.19778256  0.89878405     0.10500
C948        C  0.03300353  0.15648514  0.92926652     0.03700
C949        C  0.02228295  0.12903197  0.92555059    -0.12700
C950        C  0.03640495  0.12067692  0.90846723    -0.08400
C951        C  0.06113083  0.13999208  0.89358822     0.07200
C952        C  0.07177076  0.16735554  0.89717714    -0.13500
S953        S  0.01524401  0.16675814  0.95333153    -0.30400
H954        H  0.00346937  0.11422403  0.93718337     0.11400
S955        S  0.07998742  0.13093231  0.86981685    -0.27500
H956        H  0.09088789  0.18212765  0.88591194     0.08700
H957        H  0.06750423  0.27550555  0.90849862     0.27100
H958        H  0.49336907  0.14309937  0.95787544     0.21900
H959        H  0.05766518  0.10340178  0.86275922     0.27200
H960        H  0.08837458  0.19330957  0.95769752     0.16000
C961        C  0.33513793  0.43681659  0.90100965    -0.11200
C962        C  0.33350259  0.44063573  0.87381488     0.15300
C963        C  0.35705155  0.45448778  0.85505247     0.02200
C964        C  0.38145647  0.46335681  0.86354188    -0.15600
C965        C  0.38303691  0.45905928  0.89061183    -0.10400
C966        C  0.35956030  0.44608081  0.90977732     0.08900
C967        C  0.30659882  0.42936394  0.86610828     0.10000
S968        S  0.35723272  0.46112741  0.81996703    -0.24700
H969        H  0.39938061  0.47374128  0.84890800     0.20200
S970        S  0.36068203  0.44284894  0.94621942    -0.30400
H971        H  0.31708016  0.42658754  0.91546123     0.10500
C972        C  0.28866853  0.40245875  0.85254308     0.03700
C973        C  0.26143441  0.39041734  0.85130071    -0.12700
C974        C  0.25197692  0.40498157  0.86307266    -0.08400
C975        C  0.27074833  0.43288200  0.87371038     0.07200
C976        C  0.29762963  0.44457352  0.87577617    -0.13500
S977        S  0.30013474  0.38295376  0.83856522    -0.30400
H978        H  0.24709532  0.36911443  0.84297748     0.11400
S979        S  0.26129357  0.45432092  0.88550167    -0.27500
H980        H  0.31150485  0.46545766  0.88565455     0.08700
H981        H  0.33017409  0.90571013  0.94077449     0.27100
H982        H  0.27621443  0.36020428  0.82569929     0.21900
H983        H  0.23867152  0.43864232  0.86897141     0.27200
H984        H  0.33569410  0.46185544  0.82645157     0.16000
C985        C  0.06984356  0.38811185  0.88592381    -0.11200
C986        C  0.08510489  0.41641694  0.88648512     0.15300
C987        C  0.11353545  0.43304095  0.88209141     0.02200
C988        C  0.12610401  0.42135900  0.87908764    -0.15600
C989        C  0.11096225  0.39325865  0.87953913    -0.10400
C990        C  0.08245061  0.37637911  0.88258737     0.08900
C991        C  0.07136745  0.42855187  0.89471518     0.10000
S992        S  0.13492770  0.46939867  0.88085112    -0.24700
H993        H  0.14794752  0.43430363  0.87681556     0.20200
S994        S  0.06107717  0.34002245  0.88363949    -0.30400
H995        H  0.04803739  0.37525276  0.88934621     0.10500
C996        C  0.05547387  0.42612642  0.87575182     0.03700
C997        C  0.04454797  0.43966727  0.88403925    -0.12700
C998        C  0.04918285  0.45575120  0.91095866    -0.08400
C999        C  0.06519262  0.45800707  0.92984951     0.07200
C1000       C  0.07563328  0.44408592  0.92171790    -0.13500
S1001       S  0.04985824  0.40657247  0.84065479    -0.30400
H1002       H  0.03218986  0.43758539  0.86946004     0.11400
S1003       S  0.07473639  0.47970233  0.96369711    -0.27500
H1004       H  0.08807166  0.44615263  0.93620865     0.08700
H1005       H  0.07969964  0.33993961  0.89435777     0.27100
H1006       H  0.03339252  0.41065965  0.83162571     0.21900
H1007       H  0.08008552  0.50141562  0.95260268     0.27200
H1008       H  0.11573861  0.46926925  0.87097843     0.16000
C1009       C  0.38017611  0.09596805  0.70764629    -0.11200
C1010       C  0.39912820  0.10438523  0.72669572     0.15300
C1011       C  0.40457648  0.12430903  0.75036755     0.02200
C1012       C  0.39080762  0.13487764  0.75474931    -0.15600
C1013       C  0.37225820  0.12688116  0.73547709    -0.10400
C1014       C  0.36659724  0.10681572  0.71190037     0.08900
C1015       C  0.41269530  0.09193450  0.72170266     0.10000
S1016       S  0.42965695  0.13789321  0.77514543    -0.24700
H1017       H  0.39555558  0.15052111  0.77262110     0.20200
S1018       S  0.34163509  0.09364928  0.68716944    -0.30400
H1019       H  0.37566235  0.08056086  0.68956346     0.10500
C1020       C  0.40715128  0.07418139  0.74026930     0.03700
C1021       C  0.42156866  0.06419413  0.73581452    -0.12700
C1022       C  0.44138780  0.07123859  0.71287481    -0.08400
C1023       C  0.44689277  0.08918082  0.69431366     0.07200
C1024       C  0.43234501  0.09896326  0.69872883    -0.13500
S1025       S  0.38078466  0.06319025  0.76893177    -0.30400
H1026       H  0.41672929  0.05008835  0.74977110     0.11400
S1027       S  0.47307186  0.10152632  0.66542088    -0.27500
H1028       H  0.43694351  0.11285466  0.68459226     0.08700
H1029       H  0.32554522  0.09818365  0.70700647     0.27100
H1030       H  0.38806901  0.05219568  0.78363538     0.21900
H1031       H  0.49125802  0.10401901  0.68074497     0.27200
H1032       H  0.44739558  0.13629415  0.75470938     0.16000
C1033       C  0.43146089  0.32711677  0.77411339    -0.11200
C1034       C  0.41434962  0.33389726  0.77870895     0.15300
C1035       C  0.38686454  0.31399953  0.78757818     0.02200
C1036       C  0.37653704  0.28715820  0.78835404    -0.15600
C1037       C  0.39322113  0.27986540  0.78110586    -0.10400
C1038       C  0.42123227  0.30046636  0.77565171     0.08900
C1039       C  0.42455432  0.35980361  0.76909090     0.10000
S1040       S  0.36378166  0.32133617  0.79662704    -0.24700
H1041       H  0.35504557  0.27145406  0.79277360     0.20200
S1042       S  0.44453933  0.29343226  0.76891155    -0.30400
H1043       H  0.45264644  0.34227644  0.76768199     0.10500
C1044       C  0.44562899  0.38571830  0.78212220     0.03700
C1045       C  0.45602666  0.40940675  0.77037581    -0.12700
C1046       C  0.44631095  0.40776265  0.74513857    -0.08400
C1047       C  0.42572650  0.38142982  0.73166048     0.07200
C1048       C  0.41474659  0.35807433  0.74413110    -0.13500
S1049       S  0.45906558  0.38876427  0.81399781    -0.30400
H1050       H  0.47168555  0.42924330  0.78109840     0.11400
S1051       S  0.41407285  0.37568730  0.69716922    -0.27500
H1052       H  0.39927154  0.33812883  0.73336969     0.08700
H1053       H  0.42775179  0.26911332  0.78192316     0.27100
H1054       H  0.48507337  0.41293914  0.80788066     0.21900
H1055       H  0.44011831  0.39514606  0.68474763     0.27200
H1056       H  0.38354246  0.34945292  0.80491047     0.16000
C1057       C  0.15001376  0.07133837  0.69489591    -0.11200
C1058       C  0.16080914  0.07935073  0.72164046     0.15300
C1059       C  0.14374939  0.07504584  0.74712504     0.02200
C1060       C  0.11687701  0.06386123  0.74514065    -0.15600
C1061       C  0.10665039  0.05725743  0.71831843    -0.10400
C1062       C  0.12321935  0.05999862  0.69293581     0.08900
C1063       C  0.19023325  0.09357405  0.72181488     0.10000
S1064       S  0.15504094  0.08412827  0.78283066    -0.24700
H1065       H  0.10424982  0.06144749  0.76472117     0.20200
S1066       S  0.11127898  0.04887662  0.65725536    -0.30400
H1067       H  0.16267177  0.07400324  0.67526713     0.10500
C1068       C  0.19987970  0.08161253  0.73018827     0.03700
C1069       C  0.22793623  0.09679307  0.73119735    -0.12700
C1070       C  0.24673095  0.12355622  0.72338277    -0.08400
C1071       C  0.23687615  0.13490769  0.71392249     0.07200
C1072       C  0.20898539  0.11979407  0.71292248    -0.13500
S1073       S  0.17650139  0.04699995  0.73928208    -0.30400
H1074       H  0.23537020  0.08806032  0.73859502     0.11400
S1075       S  0.25868306  0.16937619  0.70505032    -0.27500
H1076       H  0.20174338  0.12901290  0.70617506     0.08700
H1077       H  0.08429533  0.02752355  0.66535568     0.27100
H1078       H  0.19605730  0.04516531  0.74376224     0.21900
H1079       H  0.27449493  0.18050108  0.72872715     0.27200
H1080       H  0.18237566  0.10552633  0.77603323     0.16000
C1081       C  0.36697920  0.07833947  0.97017640    -0.11200
C1082       C  0.39461418  0.09455024  0.96115960     0.15300
C1083       C  0.40705526  0.11976228  0.95111087     0.02200
C1084       C  0.39229813  0.12906965  0.95279211    -0.15600
C1085       C  0.36500661  0.11324769  0.96295866    -0.10400
C1086       C  0.35209875  0.08724366  0.97084775     0.08900
C1087       C  0.40910592  0.08371642  0.96157953     0.10000
S1088       S  0.44149339  0.14100211  0.93593004    -0.24700
H1089       H  0.40228706  0.14908809  0.94679486     0.20200
S1090       S  0.33033815  0.08084534  0.51962728    -0.30400
H1091       H  0.35695750  0.05865252  0.97714676     0.10500
C1092       C  0.42837631  0.09217547  0.48468503     0.03700
C1093       C  0.44295317  0.08457661  0.97883190    -0.12700
C1094       C  0.43384863  0.05998921  0.96135824    -0.08400
C1095       C  0.41144276  0.04684079  0.94488830     0.07200
C1096       C  0.39980430  0.05896291  0.94475576    -0.13500
S1097       S  0.43879367  0.12093667  0.51166879    -0.30400
H1098       H  0.45599045  0.08763743  0.49586652     0.11400
S1099       S  0.39584324  0.01382835  0.92431422    -0.27500
H1100       H  0.38289949  0.04868311  0.93166276     0.08700
H1101       H  0.31369869  0.08080229  0.50439371     0.27100
H1102       H  0.46002024  0.12398466  0.52102145     0.21900
H1103       H  0.40059347  0.00361653  0.94350274     0.27200
H1104       H  0.44315371  0.11996333  0.92634525     0.16000
C1105       C  0.41475474  0.30246843  0.48877200    -0.11200
C1106       C  0.39381291  0.30797084  0.98771487     0.15300
C1107       C  0.36579004  0.28763089  0.98411635     0.02200
C1108       C  0.35344202  0.26002211  0.98434436    -0.15600
C1109       C  0.36845620  0.25219393  0.98800282    -0.10400
C1110       C  0.40266048  0.27503579  0.48915676     0.08900
C1111       C  0.40888476  0.33701282  0.98393396     0.10000
S1112       S  0.34485228  0.29547899  0.97856113    -0.24700
H1113       H  0.33194095  0.24450053  0.98188559     0.20200
S1114       S  0.42384188  0.26759659  0.49474310    -0.30400
H1115       H  0.43593877  0.31816042  0.49282196     0.10500
C1116       C  0.41691188  0.35759119  0.00751548     0.03700
C1117       C  0.43180049  0.38491893  0.00243194    -0.12700
C1118       C  0.43915240  0.39201293  0.97417875    -0.08400
C1119       C  0.43215373  0.37142458  0.95077775     0.07200
C1120       C  0.41679180  0.34425816  0.95585544    -0.13500
S1121       S  0.40750797  0.34884199  0.04393794    -0.30400
H1122       H  0.43703641  0.40061516  0.02037775     0.11400
S1123       S  0.44307836  0.37876960  0.91389108    -0.27500
H1124       H  0.41139880  0.32864007  0.93773277     0.08700
H1125       H  0.40981002  0.24222342  0.47744226     0.27100
H1126       H  0.42130404  0.37570042  0.05779529     0.21900
H1127       H  0.46835983  0.40413366  0.92036303     0.27200
H1128       H  0.36070052  0.32237157  0.99239068     0.16000
C1129       C  0.14927641  0.08707525  0.98970214    -0.11200
C1130       C  0.14866790  0.08226335  0.01743577     0.15300
C1131       C  0.12549239  0.07150713  0.53316192     0.02200
C1132       C  0.10151358  0.05990173  0.52098156    -0.15600
C1133       C  0.10039292  0.06039868  0.99342155    -0.10400
C1134       C  0.12559902  0.07599973  0.97735285     0.08900
C1135       C  0.17457983  0.09254185  0.02742086     0.10000
S1136       S  0.12327150  0.06883417  0.57082906    -0.24700
H1137       H  0.08273552  0.04962053  0.53436092     0.20200
S1138       S  0.12903174  0.08103040  0.94029640    -0.30400
H1139       H  0.16839054  0.09868583  0.97701324     0.10500
C1140       C  0.18011150  0.07475197  0.02786581     0.03700
C1141       C  0.20663149  0.08563419  0.03111375    -0.12700
C1142       C  0.22794763  0.11390961  0.03350583    -0.08400
C1143       C  0.22374051  0.13615758  0.53082852     0.07200
C1144       C  0.19702854  0.12466193  0.52806513    -0.13500
S1145       S  0.15432437  0.03822612  0.02054356    -0.30400
H1146       H  0.21142622  0.07207610  0.02869640     0.11400
S1147       S  0.24930285  0.17241357  0.52941280    -0.27500
H1148       H  0.19268463  0.13777616  0.52547858     0.08700
H1149       H  0.10448752  0.05549276  0.93229936     0.27100
H1150       H  0.16894578  0.03112907  0.02778891     0.21900
H1151       H  0.26879499  0.17566109  0.54295173     0.27200
H1152       H  0.15031376  0.09135313  0.57592980     0.16000
C1153       C  0.28239717  0.15046119  0.90712611    -0.11200
C1154       C  0.28612054  0.13487574  0.88520065     0.15300
C1155       C  0.28862340  0.11654995  0.89218233     0.02200
C1156       C  0.29437493  0.11937825  0.92006756    -0.15600
C1157       C  0.29768442  0.14025458  0.94063058    -0.10400
C1158       C  0.28700077  0.15260803  0.93525025     0.08900
C1159       C  0.29746325  0.14566664  0.85754388     0.10000
S1160       S  0.28809863  0.09188775  0.86549122    -0.24700
H1161       H  0.29671899  0.10557196  0.92529122     0.20200
S1162       S  0.27942829  0.17237877  0.96105578    -0.30400
H1163       H  0.27900230  0.16359054  0.90195862     0.10500
C1164       C  0.28400538  0.14930024  0.84177545     0.03700
C1165       C  0.29763631  0.16311197  0.81762815    -0.12700
C1166       C  0.32279558  0.16997760  0.80698520    -0.08400
C1167       C  0.33799655  0.17093688  0.82558138     0.07200
C1168       C  0.32483322  0.15795128  0.85036822    -0.13500
S1169       S  0.24940649  0.13563534  0.85159522    -0.30400
H1170       H  0.28834441  0.16802273  0.80675614     0.11400
S1171       S  0.37420074  0.19040671  0.81941197    -0.27500
H1172       H  0.33598167  0.15792438  0.86468892     0.08700
H1173       H  0.28603144  0.17160281  0.98683778     0.27100
H1174       H  0.24763225  0.14714598  0.83099459     0.21900
H1175       H  0.37810802  0.18466229  0.84398429     0.27200
H1176       H  0.27562215  0.09269264  0.84496542     0.16000
C1177       C  0.38087724  0.20101639  0.58101112    -0.11200
C1178       C  0.36297809  0.18712138  0.60383815     0.15300
C1179       C  0.33631366  0.16332739  0.59906407     0.02200
C1180       C  0.32682897  0.15649821  0.57224834    -0.15600
C1181       C  0.34362216  0.17250599  0.54983907    -0.10400
C1182       C  0.37200135  0.19285352  0.55346673     0.08900
C1183       C  0.37064359  0.19938951  0.63301299     0.10000
S1184       S  0.31312478  0.14159518  0.62667340    -0.24700
H1185       H  0.30636703  0.13808528  0.56892088     0.20200
S1186       S  0.39888358  0.20921414  0.52538765    -0.30400
H1187       H  0.40180097  0.21837674  0.58476826     0.10500
C1188       C  0.38557992  0.19617464  0.64659724     0.03700
C1189       C  0.38202320  0.19686313  0.67646792    -0.12700
C1190       C  0.36185210  0.19782370  0.69179456    -0.08400
C1191       C  0.35232061  0.20785393  0.67858594     0.07200
C1192       C  0.35695965  0.20841748  0.64902834    -0.13500
S1193       S  0.40639550  0.18816615  0.62587930    -0.30400
H1194       H  0.39415763  0.19557197  0.68747518     0.11400
S1195       S  0.33261185  0.21842943  0.69601299    -0.27500
H1196       H  0.34706741  0.21270139  0.63802808     0.08700
H1197       H  0.38561100  0.19140512  0.50101630     0.27100
H1198       H  0.41287922  0.18356999  0.64930739     0.21900
H1199       H  0.33369331  0.21840685  0.72499159     0.27200
H1200       H  0.33289332  0.14710016  0.64219792     0.16000
C1201       C  0.31559279  0.64947468  0.46488510     0.30200
C1202       C  0.33541342  0.66855022  0.02081420     0.30200
C1203       C  0.33231413  0.64083213  0.46894046    -0.06000
C1204       C  0.33464076  0.68044963  0.47539639    -0.06800
C1205       C  0.29336510  0.63679590  0.48910357    -0.06700
C1206       C  0.34188832  0.65150844  0.00035547    -0.06100
C1207       C  0.34636911  0.69211901  0.00407552    -0.06800
C1208       C  0.30427273  0.65049065  0.01922094    -0.06700
C1209       C  0.35525686  0.64230334  0.00323759    -0.32100
N1210       N  0.35432270  0.62550212  0.47285990     0.14400
C1211       C  0.34221498  0.62738251  0.45406435    -0.32100
H1212       H  0.34073754  0.61928567  0.43156567     0.16300
C1213       C  0.36240118  0.72025137  0.00927969    -0.31100
N1214       N  0.36583010  0.73008933  0.98477345     0.13100
C1215       C  0.34636075  0.70474338  0.46496522    -0.31100
C1216       C  0.28075297  0.64130083  0.03707016    -0.31400
N1217       N  0.25944811  0.62730396  0.02024931     0.13600
H1218       H  0.27935738  0.64556788  0.06028169     0.16300
C1219       C  0.26587399  0.62147354  0.49041081    -0.31400
H1220       H  0.25366827  0.61362495  0.47238810     0.16300
H1221       H  0.34504357  0.70706152  0.44362297     0.16300
H1222       H  0.36407339  0.64547404  0.02247971     0.16300
H1223       H  0.37094343  0.73271471  0.02941296     0.16300
C1224       C  0.35478794  0.68823569  0.21744696     0.30200
C1225       C  0.33429239  0.67432144  0.27150955     0.30200
C1226       C  0.35765668  0.66846319  0.22661312    -0.06000
C1227       C  0.36707700  0.71170644  0.24169688    -0.06800
C1228       C  0.32392283  0.67220465  0.22282560    -0.06700
C1229       C  0.34718132  0.66148573  0.25444204    -0.06100
C1230       C  0.35609515  0.70501605  0.26915877    -0.06800
C1231       C  0.31345937  0.66489861  0.25047728    -0.06700
C1232       C  0.35031534  0.64304540  0.25869451    -0.32100
N1233       N  0.36230900  0.63852041  0.23433495     0.14400
C1234       C  0.36625737  0.65339110  0.21446921    -0.32100
H1235       H  0.37475490  0.65293411  0.19276582     0.16300
C1236       C  0.36551824  0.72931879  0.28660583    -0.31100
N1237       N  0.38295726  0.75027414  0.27019272     0.13100
C1238       C  0.38412265  0.73962025  0.24282895    -0.31100
C1239       C  0.28564540  0.64713199  0.24983911    -0.31400
N1240       N  0.27896820  0.64530768  0.22365776     0.13600
H1241       H  0.27079974  0.63522308  0.26659233     0.16300
C1242       C  0.30212439  0.65985510  0.20650559    -0.31400
H1243       H  0.30295517  0.66088964  0.18386283     0.16300
H1244       H  0.39448195  0.75123801  0.22454881     0.16300
H1245       H  0.34451013  0.63373302  0.27818398     0.16300
H1246       H  0.35904791  0.73144623  0.30895103     0.16300
O1247       O  0.03489387  0.97830480  0.39703816    -0.75100
O1248       O  0.03316008  0.97693809  0.44542714    -0.54100
C1249       C  0.04002356  0.97330724  0.41866588     0.78600
O1250       O  0.04244622  0.59241169  0.42772598    -0.59700
O1251       O  0.50520085  0.57296287  0.40185406    -0.52800
C1252       C  0.02766989  0.59330398  0.41415617     0.70600
O1253       O  0.07305961  0.56075536  0.46946020    -0.74300
O1254       O  0.05245950  0.52097980  0.48782411    -0.54900
C1255       C  0.07333334  0.54544766  0.48286302     0.76600
O1256       O  0.50767702  0.50433000  0.33879964    -0.59400
O1257       O  0.48623584  0.52255681  0.35024718    -0.52600
C1258       C  0.49727231  0.51398961  0.33077458     0.73200
Zr1259     Zr  0.01274514  0.99488047  0.38537857     2.54700
O1260       O  0.05644831  0.52011624  0.36187774    -0.80000
O1261       O  0.49150694  0.95206815  0.35322475    -0.93400
Zr1262     Zr  0.04110772  0.55881475  0.44570690     2.64700
O1263       O  0.08327917  0.58209430  0.41568155    -0.98400
O1264       O  0.05924061  0.59838847  0.48208647    -0.80400
O1265       O  0.03282709  0.51686195  0.43257016    -0.83800
O1266       O  0.02032829  0.53616658  0.40073151    -2.18500
O1267       O  0.41009848  0.95177229  0.41143002    -0.67200
O1268       O  0.43227920  0.49194134  0.38797002    -0.51800
C1269       C  0.40939460  0.96637924  0.39749730     0.71600
O1270       O  0.47941577  0.51464792  0.03916393    -0.60100
O1271       O  0.00128973  0.99797285  0.02698986    -0.52100
C1272       C  0.49390824  0.01124124  0.04791043     0.73400
O1273       O  0.45253772  0.54181961  0.47975654    -0.71500
O1274       O  0.45385741  0.54103340  0.43086250    -0.50200
C1275       C  0.44744423  0.54590124  0.45731592     0.74800
O1276       O  0.44227375  0.92257513  0.45256436    -0.66800
O1277       O  0.47808191  0.94372463  0.47968310    -0.54000
C1278       C  0.45622017  0.92224521  0.46822990     0.73100
Zr1279     Zr  0.44305566  0.95621701  0.43524842     2.77500
O1280       O  0.40316141  0.93391957  0.46876248    -0.97600
O1281       O  0.42364655  0.91583227  0.39991991    -0.78400
Zr1282     Zr  0.47201839  0.52214717  0.49103679     2.70100
O1283       O  0.43055826  0.00081737  0.01961879    -0.79600
O1284       O  0.49539134  0.56611082  0.02177329    -0.98700
Zr1285     Zr  0.00904007  0.99330875  0.47143967     2.21500
Zr1286     Zr  0.47765168  0.52450101  0.40544779     2.11100
O1287       O  0.45057463  0.99804410  0.44681925    -2.47400
O1288       O  0.46369289  0.98049966  0.47992183    -0.79400
O1289       O  0.46821419  0.98101617  0.39440125    -0.71600
O1290       O  0.01452111  0.53292228  0.48523266    -2.32600
O1291       O  0.48634146  0.96853355  0.42704684    -2.28800
O1292       O  0.49850819  0.54788302  0.45083605    -0.73400
H1293       H  0.03101589  0.54786221  0.38562230     0.78600
H1294       H  0.02631134  0.54350195  0.00163946     0.79700
H1295       H  0.43324339  0.99397856  0.44937260     0.81900
H1296       H  0.48410523  0.95194609  0.42239035     0.79500
H1297       H  0.04752603  0.59103309  0.49985980     0.42600
H1298       H  0.01206546  0.57243088  0.02637419     0.41500
H1299       H  0.41766280  0.99587809  0.00619571     0.41200
H1300       H  0.39234594  0.91422397  0.46161073     0.39100
H1301       H  0.43930226  0.91707922  0.39053989     0.42300
H1302       H  0.47355316  0.94606448  0.35044656     0.37100
H1303       H  0.06905629  0.53258259  0.37726325     0.43200
H1304       H  0.07921428  0.58460422  0.39820861     0.39600
H1305       H  0.40981262  0.93578853  0.48699165     0.44500
H1306       H  0.48755159  0.93847868  0.36456369     0.43200
H1307       H  0.09522900  0.60073003  0.42601087     0.43400
H1308       H  0.48067350  0.56648559  0.03116247     0.43700
O1309       O  0.03341698  0.97797961  0.14806389    -0.75100
O1310       O  0.03338461  0.98094759  0.19711943    -0.54100
C1311       C  0.03954086  0.97539490  0.17089979     0.78600
O1312       O  0.04682545  0.59707967  0.16519931    -0.59700
O1313       O  0.50554756  0.56998425  0.14098404    -0.52800
C1314       C  0.03190458  0.59640646  0.14994228     0.70600
O1315       O  0.08030435  0.56571353  0.20125094    -0.74300
O1316       O  0.06308409  0.53316581  0.23049267    -0.54900
C1317       C  0.08284208  0.55320087  0.21638664     0.76600
O1318       O  0.00394488  0.50049748  0.09052204    -0.59400
O1319       O  0.48063610  0.51562777  0.09988583    -0.52600
C1320       C  0.49020334  0.50531922  0.08070708     0.73200
Zr1321     Zr  0.00929741  0.99281848  0.13608869     2.54700
O1322       O  0.05466473  0.51609900  0.10904254    -0.80000
O1323       O  0.49230038  0.95283583  0.10809718    -0.93400
Zr1324     Zr  0.04601320  0.56689725  0.19008988     2.64700
O1325       O  0.08995690  0.59699607  0.16443684    -0.98400
O1326       O  0.06263741  0.60460092  0.22865141    -0.80400
O1327       O  0.03672942  0.52434007  0.18104218    -0.83800
O1328       O  0.02211823  0.53929047  0.14765707    -2.18500
O1329       O  0.41393842  0.96058357  0.16730794    -0.67200
O1330       O  0.42912080  0.49220335  0.14567041    -0.51800
C1331       C  0.41286350  0.97483214  0.15312924     0.71600
O1332       O  0.48722265  0.52436935  0.28886090    -0.60100
O1333       O  0.00640204  0.00497076  0.27712550    -0.52100
C1334       C  0.49698908  0.01465791  0.29770084     0.73400
O1335       O  0.46010399  0.55077888  0.22916789    -0.71500
O1336       O  0.45864010  0.54718461  0.18029918    -0.50200
C1337       C  0.45449037  0.55451930  0.20683107     0.74800
O1338       O  0.44491000  0.93265334  0.21419851    -0.66800
O1339       O  0.48432553  0.95408174  0.23449976    -0.54000
C1340       C  0.46001241  0.93278604  0.22851296     0.73100
Zr1341     Zr  0.44738597  0.96381581  0.18919429     2.77500
O1342       O  0.40638081  0.94166026  0.22119480    -0.97600
O1343       O  0.42771965  0.92250162  0.15519026    -0.78400
Zr1344     Zr  0.47999231  0.53163822  0.24118582     2.70100
O1345       O  0.43728731  0.01209855  0.26976461    -0.79600
O1346       O  0.50384043  0.57671361  0.26875398    -0.98700
Zr1347     Zr  0.01141975  0.99941814  0.22176646     2.21500
Zr1348     Zr  0.47687200  0.52420643  0.15522454     2.11100
O1349       O  0.45668522  0.00647032  0.19929467    -2.47400
O1350       O  0.47087904  0.99017705  0.23195208    -0.79400
O1351       O  0.47124099  0.98600273  0.14662436    -0.71600
O1352       O  0.02399240  0.54601471  0.23376456    -2.32600
O1353       O  0.48998924  0.97400612  0.17986919    -2.28800
O1354       O  0.50254992  0.55232300  0.19697873    -0.73400
H1355       H  0.03175383  0.54909587  0.13098279     0.78600
H1356       H  0.03509672  0.55703058  0.24990446     0.79700
H1357       H  0.43969004  0.00312208  0.20269825     0.81900
H1358       H  0.48712135  0.95705846  0.17675617     0.79500
H1359       H  0.07869681  0.60836748  0.23458529     0.42600
H1360       H  0.02120626  0.58399813  0.27618499     0.41500
H1361       H  0.43079346  0.99376147  0.27198954     0.41200
H1362       H  0.40434494  0.95584836  0.22829627     0.39100
H1363       H  0.43491111  0.92905360  0.13595825     0.42300
H1364       H  0.48560359  0.93980282  0.12191717     0.37100
H1365       H  0.06183350  0.53485942  0.10767744     0.43200
H1366       H  0.08606051  0.59350891  0.14405401     0.39600
H1367       H  0.39145084  0.92808511  0.20837003     0.44500
H1368       H  0.50728695  0.95404765  0.09642006     0.43200
H1369       H  0.09615698  0.61571455  0.17107324     0.43400
H1370       H  0.51386955  0.58955150  0.25396417     0.43700
C1371       C  0.14827079  0.84155760  0.36234999     0.30200
C1372       C  0.15758542  0.86511554  0.41770523     0.30200
C1373       C  0.14009061  0.85990704  0.37279839    -0.06000
C1374       C  0.13524110  0.82223027  0.38513428    -0.06800
C1375       C  0.17849086  0.86197072  0.36889524    -0.06700
C1376       C  0.14491352  0.87166498  0.40094099    -0.06100
C1377       C  0.14028674  0.83375423  0.41320909    -0.06800
C1378       C  0.18338549  0.87391150  0.39775134    -0.06700
C1379       C  0.13622765  0.88685934  0.40704820    -0.32100
N1380       N  0.12600312  0.88452443  0.38322397     0.14400
C1381       C  0.12892675  0.86881727  0.36179341    -0.32100
H1382       H  0.12270351  0.86375030  0.34017076     0.16300
C1383       C  0.12712510  0.81229588  0.42974075    -0.31100
N1384       N  0.11369052  0.78836885  0.41190372     0.13100
C1385       C  0.11910990  0.79444399  0.38458181    -0.31100
C1386       C  0.21103676  0.89048596  0.39957384    -0.31400
N1387       N  0.22295112  0.89027489  0.37292483     0.13600
H1388       H  0.22205690  0.90111555  0.41877137     0.16300
C1389       C  0.20337676  0.87320818  0.35401009    -0.31400
H1390       H  0.20719419  0.86949052  0.33114553     0.16300
H1391       H  0.11188220  0.77959772  0.36555749     0.16300
H1392       H  0.13661089  0.89818627  0.42753621     0.16300
H1393       H  0.12675701  0.81390404  0.45291964     0.16300
C1394       C  0.15447203  0.86139541  0.11845634     0.30200
C1395       C  0.14579172  0.84998084  0.17312519     0.30200
C1396       C  0.13849588  0.86888845  0.14001846    -0.06000
C1397       C  0.13929807  0.83111581  0.12162988    -0.06800
C1398       C  0.18021740  0.87720592  0.13469653    -0.06700
C1399       C  0.13339659  0.86233271  0.16769978    -0.06100
C1400       C  0.13582094  0.82585492  0.14950328    -0.06800
C1401       C  0.17595990  0.87069097  0.16245713    -0.06700
C1402       C  0.12612337  0.87706836  0.18542334    -0.32100
N1403       N  0.12739940  0.89292564  0.16924558     0.14400
C1404       C  0.13618818  0.88907052  0.14216843    -0.32100
H1405       H  0.14138889  0.90106492  0.12540251     0.16300
C1406       C  0.12394427  0.79876735  0.14871125    -0.31100
N1407       N  0.11875144  0.78676036  0.12123172     0.13100
C1408       C  0.12827816  0.80631441  0.10416593    -0.31100
C1409       C  0.20117402  0.88262542  0.17091125    -0.31400
N1410       N  0.22045859  0.89793747  0.15033994     0.13600
H1411       H  0.20522535  0.87883096  0.18947997     0.16300
C1412       C  0.20775841  0.89504559  0.12837596    -0.31400
H1413       H  0.21790337  0.90419895  0.10855760     0.16300
H1414       H  0.12723189  0.80281246  0.08101987     0.16300
H1415       H  0.12186769  0.87746160  0.20856345     0.16300
H1416       H  0.11884936  0.78820376  0.16692080     0.16300
C1417       C  0.14239200  0.80780769  0.28507119    -0.11200
C1418       C  0.12243495  0.80822226  0.27870348     0.15300
C1419       C  0.10444203  0.80740908  0.30091531     0.02200
C1420       C  0.11184120  0.81425372  0.32884048    -0.15600
C1421       C  0.13788217  0.82470259  0.33382301    -0.10400
C1422       C  0.15038143  0.81604242  0.31315653     0.08900
C1423       C  0.12757145  0.82017179  0.25301186     0.10000
S1424       S  0.07542083  0.80331238  0.29416790    -0.24700
H1425       H  0.09890760  0.81489093  0.34635886     0.20200
S1426       S  0.17483970  0.81352303  0.32063365    -0.30400
H1427       H  0.15434859  0.80527695  0.26779123     0.10500
C1428       C  0.15159998  0.84703794  0.24929742     0.03700
C1429       C  0.15670771  0.85731510  0.22381995    -0.12700
C1430       C  0.13795927  0.84176029  0.20285675    -0.08400
C1431       C  0.11142394  0.81845366  0.21033436     0.07200
C1432       C  0.10728511  0.80645072  0.23401194    -0.13500
S1433       S  0.17538499  0.86884861  0.27704334    -0.30400
H1434       H  0.17481003  0.87778405  0.22079928     0.11400
S1435       S  0.08271402  0.80421251  0.19065871    -0.27500
H1436       H  0.08807364  0.78682458  0.23815361     0.08700
H1437       H  0.16786358  0.81224527  0.35033367     0.27100
H1438       H  0.19350054  0.89225976  0.26254659     0.21900
H1439       H  0.06270463  0.78773349  0.21152562     0.27200
H1440       H  0.06532609  0.80333119  0.32305230     0.16000
C1441       C  0.13440494  0.86967971  0.49590937    -0.11200
C1442       C  0.15919305  0.88833815  0.50832078     0.15300
C1443       C  0.18295221  0.90484967  0.49098210     0.02200
C1444       C  0.18197364  0.89858363  0.46117369    -0.15600
C1445       C  0.15770950  0.87604237  0.44882931    -0.10400
C1446       C  0.13302062  0.86400111  0.46647324     0.08900
C1447       C  0.16715476  0.88791538  0.03691856     0.10000
S1448       S  0.21494665  0.93285253  0.50581327    -0.24700
H1449       H  0.20016199  0.91144951  0.44801946     0.20200
S1450       S  0.09849105  0.83976378  0.45526920    -0.30400
H1451       H  0.11584362  0.85724222  0.50917951     0.10500
C1452       C  0.14723179  0.88457681  0.05776705     0.03700
C1453       C  0.14042938  0.87051936  0.08044916    -0.12700
C1454       C  0.15779112  0.86688631  0.08783058    -0.08400
C1455       C  0.17777028  0.86973495  0.06660628     0.07200
C1456       C  0.18209645  0.88023984  0.04133202    -0.13500
S1457       S  0.12901153  0.89636356  0.05447923    -0.30400
H1458       H  0.12164929  0.86309526  0.09293262     0.11400
S1459       S  0.19624697  0.85772605  0.06759156    -0.27500
H1460       H  0.19594327  0.88074743  0.02417009     0.08700
H1461       H  0.10144740  0.83558029  0.42534819     0.27100
H1462       H  0.11450613  0.89025406  0.08156230     0.21900
H1463       H  0.18294587  0.84384550  0.09191626     0.27200
H1464       H  0.21040321  0.93910191  0.02947928     0.16000
C1465       C  0.06431047  0.71161358  0.12330577    -0.11200
C1466       C  0.07932371  0.70235217  0.11643426     0.15300
C1467       C  0.10662262  0.72061099  0.10567368     0.02200
C1468       C  0.11875190  0.74807247  0.10455934    -0.15600
C1469       C  0.10420378  0.75778617  0.11354503    -0.10400
C1470       C  0.07638948  0.73893696  0.12193002     0.08900
C1471       C  0.06714345  0.67513005  0.12462614     0.10000
S1472       S  0.12763382  0.71071847  0.09517943    -0.24700
H1473       H  0.14015027  0.76240545  0.09848757     0.20200
S1474       S  0.05579406  0.74916814  0.13349982    -0.30400
H1475       H  0.04339014  0.69785059  0.13143973     0.10500
C1476       C  0.07490787  0.67326497  0.14917434     0.03700
C1477       C  0.06323937  0.64750095  0.15651447    -0.12700
C1478       C  0.04354455  0.62301407  0.14008424    -0.08400
C1479       C  0.03559980  0.62505478  0.11555275     0.07200
C1480       C  0.04717027  0.65091824  0.10838946    -0.13500
S1481       S  0.09891508  0.70380521  0.17204290    -0.30400
H1482       H  0.06918529  0.64650584  0.17568463     0.11400
S1483       S  0.01159764  0.59568351  0.09186634    -0.27500
H1484       H  0.04095431  0.65219781  0.08961716     0.08700
H1485       H  0.07206844  0.77278021  0.11935441     0.27100
H1486       H  0.10202621  0.69108594  0.18964679     0.21900
H1487       H  0.02298150  0.58290880  0.09070205     0.27200
H1488       H  0.10659859  0.68246183  0.08999657     0.16000
C1489       C  0.33790605  0.92588381  0.14030109    -0.11200
C1490       C  0.33222550  0.94396290  0.14418252     0.15300
C1491       C  0.35381868  0.97239201  0.14792543     0.02200
C1492       C  0.38009737  0.98194761  0.14946306    -0.15600
C1493       C  0.38566338  0.96381051  0.14660142    -0.10400
C1494       C  0.36430954  0.93545804  0.14076065     0.08900
C1495       C  0.30355047  0.93251287  0.14530639     0.10000
S1496       S  0.34914486  0.99750805  0.15120196    -0.24700
H1497       H  0.38964881  0.49462853  0.15281454     0.20200
S1498       S  0.36950020  0.91049722  0.13296071    -0.30400
H1499       H  0.32157686  0.90406676  0.13688304     0.10500
C1500       C  0.28806598  0.91732313  0.12106668     0.03700
C1501       C  0.26096441  0.90647415  0.12328189    -0.12700
C1502       C  0.24878124  0.91057392  0.14913957    -0.08400
C1503       C  0.26457112  0.92629549  0.17328291     0.07200
C1504       C  0.29152036  0.93669157  0.17119964    -0.13500
S1505       S  0.30290263  0.91216227  0.08704237    -0.30400
H1506       H  0.24898446  0.89430406  0.10483829     0.11400
S1507       S  0.25205208  0.93482475  0.20691760    -0.27500
H1508       H  0.30337507  0.94847396  0.18985307     0.08700
H1509       H  0.39512141  0.92766722  0.11849267     0.27100
H1510       H  0.28003805  0.89763623  0.07117368     0.21900
H1511       H  0.23506887  0.93623225  0.19437335     0.27200
H1512       H  0.32700444  0.98163958  0.13395397     0.16000
C1513       C  0.12216358  0.94686089  0.16707954    -0.11200
C1514       C  0.09507781  0.93379358  0.17705813     0.15300
C1515       C  0.08053639  0.90928189  0.18966680     0.02200
C1516       C  0.09230697  0.89701666  0.18905973    -0.15600
C1517       C  0.11880024  0.90926489  0.17729811    -0.10400
C1518       C  0.13435391  0.93539674  0.16810161     0.08900
C1519       C  0.08234691  0.94565092  0.17319617     0.10000
S1520       S  0.04681410  0.89246615  0.20643935    -0.24700
H1521       H  0.08031776  0.87717685  0.19658210     0.20200
S1522       S  0.16990157  0.95501218  0.15744929    -0.30400
H1523       H  0.13386631  0.96604657  0.15815754     0.10500
C1524       C  0.09219300  0.97205430  0.18610928     0.03700
C1525       C  0.07878334  0.98181330  0.18302538    -0.12700
C1526       C  0.05530154  0.96568046  0.16787541    -0.08400
C1527       C  0.04569533  0.93943841  0.15451531     0.07200
C1528       C  0.05962953  0.92999706  0.15677060    -0.13500
S1529       S  0.12042948  0.99254128  0.20860291    -0.30400
H1530       H  0.08587289  0.00172432  0.19365230     0.11400
S1531       S  0.51809516  0.92011144  0.13449353    -0.27500
H1532       H  0.05200732  0.90975075  0.14666966     0.08700
H1533       H  0.17420027  0.94173041  0.17270424     0.27100
H1534       H  0.11675035  0.50918940  0.22493869     0.21900
H1535       H  0.50317169  0.92610180  0.15448330     0.27200
H1536       H  0.04958716  0.91632604  0.21521176     0.16000
C1537       C  0.05948594  0.71270980  0.40736976    -0.11200
C1538       C  0.07026204  0.70516439  0.42194117     0.15300
C1539       C  0.09363318  0.72601349  0.43729855     0.02200
C1540       C  0.10697475  0.75359361  0.43530497    -0.15600
C1541       C  0.09686240  0.76090103  0.41931605    -0.10400
C1542       C  0.07185123  0.74014363  0.40696075     0.08900
C1543       C  0.05825402  0.67582973  0.41842813     0.10000
S1544       S  0.10769997  0.71878542  0.45928645    -0.24700
H1545       H  0.12587444  0.76939591  0.44532523     0.20200
S1546       S  0.05477748  0.74754326  0.39032737    -0.30400
H1547       H  0.04151979  0.69712129  0.39572249     0.10500
C1548       C  0.03056936  0.65470469  0.42539990     0.03700
C1549       C  0.02058468  0.62751147  0.42181432    -0.12700
C1550       C  0.03755747  0.62084530  0.41120239    -0.08400
C1551       C  0.06471186  0.64169636  0.40236639     0.07200
C1552       C  0.07477040  0.66883141  0.40626560    -0.13500
S1553       S  0.00809082  0.66216362  0.44076069    -0.30400
H1554       H  0.99982296  0.61158167  0.42887841     0.11400
S1555       S  0.08733597  0.63485020  0.38544855    -0.27500
H1556       H  0.09569506  0.68467722  0.39958412     0.08700
H1557       H  0.06613608  0.77314931  0.40666358     0.27100
H1558       H  0.49401364  0.64344861  0.45804393     0.21900
H1559       H  0.06707092  0.60824970  0.37297164     0.27200
H1560       H  0.08316692  0.69351916  0.46614155     0.16000
C1561       C  0.33441688  0.93090969  0.39920111    -0.11200
C1562       C  0.33247884  0.93516811  0.37244156     0.15300
C1563       C  0.35584097  0.94909027  0.35337559     0.02200
C1564       C  0.38057024  0.95861596  0.36172411    -0.15600
C1565       C  0.38258242  0.95458615  0.38872824    -0.10400
C1566       C  0.35901052  0.94036212  0.40760459     0.08900
C1567       C  0.30557891  0.92495564  0.36608831     0.10000
S1568       S  0.35552773  0.95500626  0.31807263    -0.24700
H1569       H  0.39843495  0.96939688  0.34707611     0.20200
S1570       S  0.36006025  0.93586588  0.44347140    -0.30400
H1571       H  0.31650652  0.92052879  0.41384150     0.10500
C1572       C  0.28581801  0.89753597  0.35499650     0.03700
C1573       C  0.25886484  0.88693655  0.35542902    -0.12700
C1574       C  0.25125855  0.90319141  0.36697803    -0.08400
C1575       C  0.27153085  0.93121111  0.37591712     0.07200
C1576       C  0.29833185  0.94169591  0.37573651    -0.13500
S1577       S  0.29466737  0.87563631  0.34211952    -0.30400
H1578       H  0.24332839  0.86551099  0.34850006     0.11400
S1579       S  0.26424103  0.95436988  0.38826086    -0.27500
H1580       H  0.31350301  0.96283370  0.38411919     0.08700
H1581       H  0.33653805  0.37817934  0.39086701     0.27100
H1582       H  0.26896604  0.85226846  0.33344106     0.21900
H1583       H  0.24126534  0.93962410  0.37251683     0.27200
H1584       H  0.33285722  0.95388485  0.32377104     0.16000
C1585       C  0.07383363  0.89397741  0.39241464    -0.11200
C1586       C  0.08998959  0.92190249  0.38964142     0.15300
C1587       C  0.11796895  0.93670969  0.38217405     0.02200
C1588       C  0.12920872  0.92363241  0.37893203    -0.15600
C1589       C  0.11309510  0.89585784  0.38217013    -0.10400
C1590       C  0.08498852  0.88078413  0.38854805     0.08900
C1591       C  0.07741558  0.93531306  0.39664274     0.10000
S1592       S  0.14044968  0.97237524  0.37699113    -0.24700
H1593       H  0.15080851  0.93528038  0.37441398     0.20200
S1594       S  0.06254831  0.84526633  0.39432081    -0.30400
H1595       H  0.05242209  0.88251564  0.39838785     0.10500
C1596       C  0.05765922  0.92850035  0.37980868     0.03700
C1597       C  0.04631983  0.94163241  0.38733984    -0.12700
C1598       C  0.05392169  0.96128044  0.41163175    -0.08400
C1599       C  0.07379155  0.96807685  0.42849214     0.07200
C1600       C  0.08508052  0.95490352  0.42094095    -0.13500
S1601       S  0.04714130  0.90343882  0.34835685    -0.30400
H1602       H  0.03107628  0.93624684  0.37440969     0.11400
S1603       S  0.08646008  0.99399978  0.45912399    -0.27500
H1604       H  0.10020866  0.96015111  0.43398689     0.08700
H1605       H  0.07763805  0.83811950  0.37729148     0.27100
H1606       H  0.02596665  0.90233161  0.34253392     0.21900
H1607       H  0.08555643  0.01139602  0.44691131     0.27200
H1608       H  0.12104960  0.97215121  0.36750469     0.16000
C1609       C  0.38208346  0.59382569  0.20435085    -0.11200
C1610       C  0.39977897  0.60145270  0.22465330     0.15300
C1611       C  0.40406374  0.62073347  0.24859722     0.02200
C1612       C  0.39039468  0.63140241  0.25203119    -0.15600
C1613       C  0.37307398  0.62420823  0.23154498    -0.10400
C1614       C  0.36869821  0.60485352  0.20756489     0.08900
C1615       C  0.41355808  0.58916210  0.22038539     0.10000
S1616       S  0.42753078  0.63331594  0.27499538    -0.24700
H1617       H  0.39428211  0.64650484  0.27022372     0.20200
S1618       S  0.34572899  0.59286302  0.18082256    -0.30400
H1619       H  0.37850408  0.57898859  0.18595685     0.10500
C1620       C  0.40567620  0.56903739  0.23707443     0.03700
C1621       C  0.41962593  0.55848973  0.23265935    -0.12700
C1622       C  0.44169606  0.56782763  0.21210965    -0.08400
C1623       C  0.45024667  0.58887938  0.19635927     0.07200
C1624       C  0.43579386  0.59875416  0.20013348    -0.13500
S1625       S  0.37742554  0.55629544  0.26361628    -0.30400
H1626       H  0.41294690  0.54245503  0.24486568     0.11400
S1627       S  0.48048939  0.60530993  0.17255002    -0.27500
H1628       H  0.44253044  0.61478804  0.18785987     0.08700
H1629       H  0.32850900  0.59651282  0.19951192     0.27100
H1630       H  0.38141189  0.54140050  0.27636193     0.21900
H1631       H  0.49486695  0.60288824  0.18858402     0.27200
H1632       H  0.44639309  0.63280354  0.25551518     0.16000
C1633       C  0.43194899  0.82557375  0.27015683    -0.11200
C1634       C  0.41441329  0.83149023  0.27146783     0.15300
C1635       C  0.38647445  0.81096022  0.27813438     0.02200
C1636       C  0.37659747  0.78462090  0.28091292    -0.15600
C1637       C  0.39400680  0.77831357  0.27736905    -0.10400
C1638       C  0.42205933  0.79939011  0.27333195     0.08900
C1639       C  0.42541362  0.85770126  0.26181659     0.10000
S1640       S  0.36224042  0.81658516  0.28156678    -0.24700
H1641       H  0.35500395  0.76842043  0.28370627     0.20200
S1642       S  0.44590185  0.79327418  0.26980144    -0.30400
H1643       H  0.45337649  0.84107140  0.26508156     0.10500
C1644       C  0.44570469  0.88334775  0.27613401     0.03700
C1645       C  0.45692445  0.90742989  0.26468179    -0.12700
C1646       C  0.44838455  0.90656372  0.23898281    -0.08400
C1647       C  0.42828309  0.88056603  0.22447639     0.07200
C1648       C  0.41695368  0.85671854  0.23617793    -0.13500
S1649       S  0.45650669  0.88552371  0.30971459    -0.30400
H1650       H  0.47198798  0.92703872  0.27623409     0.11400
S1651       S  0.41710874  0.87595855  0.19008540    -0.27500
H1652       H  0.40194252  0.83704216  0.22461617     0.08700
H1653       H  0.42898470  0.76957731  0.28391034     0.27100
H1654       H  0.48069752  0.91253066  0.30913771     0.21900
H1655       H  0.44326154  0.89591751  0.17828667     0.27200
H1656       H  0.38051622  0.84498620  0.28931018     0.16000
C1657       C  0.15461407  0.58113149  0.19080632    -0.11200
C1658       C  0.16620302  0.58857707  0.21681051     0.15300
C1659       C  0.14959202  0.58242857  0.24287102     0.02200
C1660       C  0.12195744  0.56916789  0.24226374    -0.15600
C1661       C  0.11062180  0.56258699  0.21622644    -0.10400
C1662       C  0.12715598  0.56796267  0.19016705     0.08900
C1663       C  0.19551224  0.60224191  0.21579921     0.10000
S1664       S  0.16267075  0.59197697  0.27762063    -0.24700
H1665       H  0.10959512  0.56527627  0.26235642     0.20200
S1666       S  0.11430287  0.55795151  0.15515835    -0.30400
H1667       H  0.16704585  0.58532071  0.17072681     0.10500
C1668       C  0.20448562  0.58863282  0.22118043     0.03700
C1669       C  0.23225294  0.60284290  0.22194923    -0.12700
C1670       C  0.25148862  0.63034695  0.21691761    -0.08400
C1671       C  0.24252351  0.64352511  0.20994914     0.07200
C1672       C  0.21473369  0.62928948  0.20915273    -0.13500
S1673       S  0.18060574  0.55317006  0.22718016    -0.30400
H1674       H  0.23914376  0.59281977  0.22737879     0.11400
S1675       S  0.26535949  0.67887340  0.20375488    -0.27500
H1676       H  0.20798144  0.63972815  0.20449285     0.08700
H1677       H  0.08867839  0.53400713  0.16273684     0.27100
H1678       H  0.19967830  0.54948328  0.22741308     0.21900
H1679       H  0.28213065  0.68778273  0.22575643     0.27200
H1680       H  0.18858346  0.61572454  0.27032750     0.16000
C1681       C  0.37214971  0.58330253  0.48459498    -0.11200
C1682       C  0.39488144  0.59276948  0.46531709     0.15300
C1683       C  0.40276770  0.61153470  0.44654116     0.02200
C1684       C  0.38790140  0.62063782  0.44787706    -0.15600
C1685       C  0.36562997  0.61176141  0.46783276    -0.10400
C1686       C  0.35747687  0.59247336  0.48601461     0.08900
C1687       C  0.40855211  0.58108513  0.46428661     0.10000
S1688       S  0.43153143  0.62485458  0.42060192    -0.24700
H1689       H  0.39446627  0.63572373  0.43424698     0.20200
S1690       S  0.33603022  0.58694976  0.02088343    -0.30400
H1691       H  0.36574112  0.56854197  0.49863521     0.10500
C1692       C  0.43293905  0.59611377  0.98717347     0.03700
C1693       C  0.44263544  0.58136944  0.47922922    -0.12700
C1694       C  0.43249026  0.55655680  0.46176012    -0.08400
C1695       C  0.40932266  0.54337936  0.44665866     0.07200
C1696       C  0.39795182  0.55595240  0.44767551    -0.13500
S1697       S  0.44417987  0.62503339  0.01419775    -0.30400
H1698       H  0.45923337  0.58982304  0.99841875     0.11400
S1699       S  0.39265178  0.50998775  0.42653398    -0.27500
H1700       H  0.38036274  0.54583255  0.43578035     0.08700
H1701       H  0.31935113  0.58634550  0.00504151     0.27100
H1702       H  0.46219140  0.62473089  0.02622417     0.21900
H1703       H  0.39927878  0.50018308  0.44398979     0.27200
H1704       H  0.44540954  0.61970270  0.43337841     0.16000
C1705       C  0.42126743  0.80602241  0.98573145    -0.11200
C1706       C  0.40384006  0.81057094  0.48203969     0.15300
C1707       C  0.37524160  0.79227143  0.48379998     0.02200
C1708       C  0.36116236  0.76442190  0.48516192    -0.15600
C1709       C  0.37495070  0.75421626  0.48405308    -0.10400
C1710       C  0.40844910  0.77826134  0.98523443     0.08900
C1711       C  0.41982194  0.84009883  0.47967290     0.10000
S1712       S  0.35551373  0.80307923  0.48441681    -0.24700
H1713       H  0.33927720  0.75050822  0.48695781     0.20200
S1714       S  0.42916946  0.76934735  0.98760041    -0.30400
H1715       H  0.44276498  0.82111167  0.98847994     0.10500
C1716       C  0.42419348  0.85914704  0.50385237     0.03700
C1717       C  0.43766429  0.88645095  0.49995572    -0.12700
C1718       C  0.44636892  0.89488229  0.47226421    -0.08400
C1719       C  0.44275075  0.87587758  0.44826982     0.07200
C1720       C  0.42969042  0.84888205  0.45223132    -0.13500
S1721       S  0.41186195  0.84842366  0.53948287    -0.30400
H1722       H  0.44037359  0.90095513  0.51831046     0.11400
S1723       S  0.45402546  0.88478119  0.41193184    -0.27500
H1724       H  0.42654203  0.83436698  0.43363770     0.08700
H1725       H  0.41263153  0.74318038  0.97218777     0.27100
H1726       H  0.41906311  0.87343201  0.55397731     0.21900
H1727       H  0.47796798  0.91099111  0.41972428     0.27200
H1728       H  0.37457527  0.82558618  0.46889115     0.16000
C1729       C  0.14856454  0.58318641  0.48720051    -0.11200
C1730       C  0.14871117  0.57643793  0.51331916     0.15300
C1731       C  0.12637548  0.56633573  0.03139312     0.02200
C1732       C  0.10190140  0.55499584  0.02043495    -0.15600
C1733       C  0.09959873  0.55657387  0.49298584    -0.10400
C1734       C  0.12454438  0.57334933  0.47675880     0.08900
C1735       C  0.17511191  0.58659711  0.52173312     0.10000
S1736       S  0.12583354  0.56527549  0.06916279    -0.24700
H1737       H  0.08383881  0.54631055  0.03489751     0.20200
S1738       S  0.12727739  0.58177828  0.44169920    -0.30400
H1739       H  0.16740310  0.59567718  0.47431985     0.10500
C1740       C  0.18183941  0.56931247  0.51877653     0.03700
C1741       C  0.20870703  0.58079674  0.52135218    -0.12700
C1742       C  0.22905904  0.60918213  0.52681426    -0.08400
C1743       C  0.22363721  0.63187055  0.02941710     0.07200
C1744       C  0.19655473  0.61904832  0.02623427    -0.13500
S1745       S  0.15702168  0.53301788  0.50862484    -0.30400
H1746       H  0.21447565  0.56793377  0.51665013     0.11400
S1747       S  0.24752000  0.66855038  0.03135596    -0.27500
H1748       H  0.19092477  0.63144796  0.02528592     0.08700
H1749       H  0.10405318  0.55571685  0.43199547     0.27100
H1750       H  0.17313740  0.52617424  0.51139062     0.21900
H1751       H  0.26558811  0.67193164  0.04770967     0.27200
H1752       H  0.15298728  0.58826817  0.07289115     0.16000
C1753       C  0.28712640  0.65143467  0.40340855    -0.11200
C1754       C  0.29068266  0.63560594  0.38171799     0.15300
C1755       C  0.29423364  0.61811354  0.38885082     0.02200
C1756       C  0.30041738  0.62155302  0.41668510    -0.15600
C1757       C  0.30322670  0.64224092  0.43711125    -0.10400
C1758       C  0.29235217  0.65433988  0.43145949     0.08900
C1759       C  0.30097239  0.64560730  0.35373448     0.10000
S1760       S  0.29477348  0.59395388  0.36234385    -0.24700
H1761       H  0.30326000  0.60818400  0.42198151     0.20200
S1762       S  0.28555590  0.67500318  0.45676479    -0.30400
H1763       H  0.28332051  0.66416335  0.39800663     0.10500
C1764       C  0.28645517  0.64786157  0.33793433     0.03700
C1765       C  0.29911356  0.66074752  0.31311532    -0.12700
C1766       C  0.32444847  0.66821829  0.30216166    -0.08400
C1767       C  0.34052781  0.67031879  0.32062929     0.07200
C1768       C  0.32832202  0.65830890  0.34597916    -0.13500
S1769       S  0.25194531  0.63404768  0.34889754    -0.30400
H1770       H  0.28940635  0.66546363  0.30278859     0.11400
S1771       S  0.37661677  0.68937820  0.31319222    -0.27500
H1772       H  0.34016776  0.65915020  0.36016404     0.08700
H1773       H  0.28951339  0.67233031  0.48317046     0.27100
H1774       H  0.24860935  0.64327987  0.32713060     0.21900
H1775       H  0.38194186  0.68756287  0.33954856     0.27200
H1776       H  0.28252534  0.59433907  0.34117352     0.16000
C1777       C  0.38586651  0.70325406  0.07874891    -0.11200
C1778       C  0.36849911  0.68836706  0.10117783     0.15300
C1779       C  0.34156965  0.66515686  0.09665805     0.02200
C1780       C  0.33133066  0.65990962  0.07080728    -0.15600
C1781       C  0.34775545  0.67667340  0.04883274    -0.10400
C1782       C  0.37634370  0.69656699  0.05188984     0.08900
C1783       C  0.37634636  0.70040723  0.13021967     0.10000
S1784       S  0.31905621  0.64238848  0.12367328    -0.24700
H1785       H  0.31070069  0.64184306  0.06768041     0.20200
S1786       S  0.40296481  0.71387333  0.02383231    -0.30400
H1787       H  0.40691458  0.72032634  0.08234670     0.10500
C1788       C  0.39035229  0.69616713  0.14397681     0.03700
C1789       C  0.38658069  0.69698949  0.17380334    -0.12700
C1790       C  0.36681743  0.69874367  0.18865096    -0.08400
C1791       C  0.35881754  0.71023355  0.17543119     0.07200
C1792       C  0.36377627  0.71075985  0.14593550    -0.13500
S1793       S  0.40997728  0.68657597  0.12360520    -0.30400
H1794       H  0.39792179  0.69487665  0.18512420     0.11400
S1795       S  0.34096546  0.72301421  0.19267116    -0.27500
H1796       H  0.35487691  0.71604482  0.13475041     0.08700
H1797       H  0.38979779  0.69649267  0.99923512     0.27100
H1798       H  0.41711399  0.68312373  0.14742583     0.21900
H1799       H  0.33948281  0.72050101  0.22152735     0.27200
H1800       H  0.33928793  0.64651982  0.13685059     0.16000
C1801       C  0.31859000  0.65345053  0.96695783     0.30200
C1802       C  0.33265929  0.66338141  0.51844544     0.30200
C1803       C  0.33413140  0.64384823  0.97235098    -0.06000
C1804       C  0.33879610  0.68457782  0.97615907    -0.06800
C1805       C  0.29627085  0.64231759  0.99132899    -0.06700
C1806       C  0.34027306  0.64791093  0.49677746    -0.06100
C1807       C  0.34227519  0.68728218  0.50321752    -0.06800
C1808       C  0.30146916  0.64426050  0.51687681    -0.06700
C1809       C  0.35355843  0.63841126  0.49873609    -0.32100
N1810       N  0.35637685  0.62903858  0.97781705     0.14400
C1811       C  0.34429870  0.63038314  0.95837247    -0.32100
H1812       H  0.34343939  0.62237981  0.93589502     0.16300
C1813       C  0.35722264  0.71522231  0.50979911    -0.31100
N1814       N  0.35986495  0.72568414  0.48620823     0.13100
C1815       C  0.35147222  0.70851975  0.96435655    -0.31100
C1816       C  0.27798129  0.63426644  0.53493713    -0.31400
N1817       N  0.25659120  0.62032238  0.51833640     0.13600
H1818       H  0.27661630  0.63807270  0.55819679     0.16300
C1819       C  0.26882366  0.62752902  0.99242328    -0.31400
H1820       H  0.25668430  0.61905050  0.97418572     0.16300
H1821       H  0.34991636  0.71014715  0.94277140     0.16300
H1822       H  0.36187720  0.64044193  0.51780819     0.16300
H1823       H  0.36589990  0.72716299  0.53006206     0.16300
C1824       C  0.35191213  0.68843884  0.71699245     0.30200
C1825       C  0.33422891  0.67611496  0.77198739     0.30200
C1826       C  0.35738144  0.67082099  0.72656203    -0.06000
C1827       C  0.36376162  0.71256426  0.74043417    -0.06800
C1828       C  0.32095784  0.67086174  0.72360161    -0.06700
C1829       C  0.34824815  0.66457089  0.75478374    -0.06100
C1830       C  0.35439677  0.70665498  0.76840582    -0.06800
C1831       C  0.31196884  0.66436493  0.75170703    -0.06700
C1832       C  0.35284831  0.64726774  0.75901071    -0.32100
N1833       N  0.36467892  0.64296510  0.73437302     0.14400
C1834       C  0.36695943  0.65667684  0.71428547    -0.32100
H1835       H  0.37464880  0.65579088  0.69224543     0.16300
C1836       C  0.36486584  0.73133783  0.78545851    -0.31100
N1837       N  0.38099698  0.75168856  0.76813963     0.13100
C1838       C  0.38042828  0.74033807  0.74066987    -0.31100
C1839       C  0.28404130  0.64588829  0.75261214    -0.31400
N1840       N  0.27584187  0.64268089  0.72683179     0.13600
H1841       H  0.27019152  0.63486330  0.77034795     0.16300
C1842       C  0.29812037  0.65717531  0.70852626    -0.31400
H1843       H  0.29765336  0.65752995  0.68601358     0.16300
H1844       H  0.38999004  0.75143930  0.72199053     0.16300
H1845       H  0.34778118  0.63823087  0.77850256     0.16300
H1846       H  0.36040796  0.73419623  0.80836224     0.16300
O1847       O  0.03550617  0.97889433  0.89710356    -0.75100
O1848       O  0.03305610  0.97692083  0.94544560    -0.54100
C1849       C  0.04057837  0.97388369  0.91878170     0.78600
O1850       O  0.04422690  0.59334748  0.92765886    -0.59700
O1851       O  0.50648045  0.57321150  0.90488227    -0.52800
C1852       C  0.02953888  0.59431665  0.91402045     0.70600
O1853       O  0.07504397  0.56016866  0.96703843    -0.74300
O1854       O  0.05339701  0.52088417  0.98715147    -0.54900
C1855       C  0.07464430  0.54487007  0.98127448     0.76600
O1856       O  0.50512932  0.50312562  0.83977268    -0.59400
O1857       O  0.48505924  0.52273418  0.85195899    -0.52600
C1858       C  0.49550702  0.51376223  0.83215201     0.73200
Zr1859     Zr  0.01259257  0.99473552  0.88539090     2.54700
O1860       O  0.05750335  0.52115667  0.86116369    -0.80000
O1861       O  0.49235670  0.95202286  0.85810290    -0.93400
Zr1862     Zr  0.04332385  0.55958253  0.94464313     2.64700
O1863       O  0.08541852  0.58329924  0.91438776    -0.98400
O1864       O  0.06218239  0.59895871  0.98140352    -0.80400
O1865       O  0.03390357  0.51708207  0.93183769    -0.83800
O1866       O  0.02217756  0.53724952  0.89979569    -2.18500
O1867       O  0.41181294  0.95410175  0.91172210    -0.67200
O1868       O  0.43071374  0.49351164  0.89321217    -0.51800
C1869       C  0.41055383  0.96844421  0.89805497     0.71600
O1870       O  0.48008607  0.51627098  0.53885892    -0.60100
O1871       O  0.00228950  0.99803233  0.52711955    -0.52100
C1872       C  0.49015143  0.00809110  0.54748109     0.73400
O1873       O  0.45371187  0.54302429  0.98112052    -0.71500
O1874       O  0.45586977  0.54333796  0.93240776    -0.50200
C1875       C  0.44935362  0.54810693  0.95882762     0.74800
O1876       O  0.44304151  0.92607071  0.95645358    -0.66800
O1877       O  0.48001906  0.94764047  0.98179249    -0.54000
C1878       C  0.45739497  0.92614658  0.97187883     0.73100
Zr1879     Zr  0.44420494  0.95913123  0.93736191     2.77500
O1880       O  0.40553703  0.94002057  0.97258319    -0.97600
O1881       O  0.42062171  0.91606873  0.90592971    -0.78400
Zr1882     Zr  0.47242339  0.52218235  0.99210294     2.70100
O1883       O  0.42755948  0.99770839  0.51593723    -0.79600
O1884       O  0.49095635  0.56455705  0.52296210    -0.98700
Zr1885     Zr  0.00825791  0.99263373  0.97134648     2.21500
Zr1886     Zr  0.47731462  0.52429725  0.90713539     2.11100
O1887       O  0.45171713  0.00090112  0.94868609    -2.47400
O1888       O  0.46574753  0.98386051  0.98140068    -0.79400
O1889       O  0.46889241  0.98307804  0.89585404    -0.71600
O1890       O  0.01661663  0.53388144  0.98433832    -2.32600
O1891       O  0.48738586  0.97090628  0.92819362    -2.28800
O1892       O  0.49920346  0.54728655  0.95184155    -0.73400
H1893       H  0.03273941  0.54884012  0.88458392     0.78600
H1894       H  0.02402442  0.54261268  0.50265237     0.79700
H1895       H  0.43437176  0.99679642  0.95128230     0.81900
H1896       H  0.48513385  0.95428127  0.92395512     0.79500
H1897       H  0.06200017  0.59267173  0.99881584     0.42600
H1898       H  0.99817551  0.57786602  0.50860893     0.41500
H1899       H  0.43080964  0.00389050  0.53667374     0.41200
H1900       H  0.39305291  0.92031190  0.96548622     0.39100
H1901       H  0.43479636  0.91460499  0.89732269     0.42300
H1902       H  0.48144939  0.93846877  0.87214537     0.37100
H1903       H  0.05485124  0.51045937  0.84197440     0.43200
H1904       H  0.07994665  0.57694648  0.89432291     0.39600
H1905       H  0.41217466  0.94074610  0.99019015     0.44500
H1906       H  0.50750546  0.95169553  0.85118813     0.43200
H1907       H  0.09289500  0.60262117  0.91751638     0.43400
H1908       H  0.47510874  0.56288018  0.53252071     0.43700
O1909       O  0.03211433  0.97563342  0.65158656    -0.75100
O1910       O  0.03123999  0.97899334  0.70078402    -0.54100
C1911       C  0.03732820  0.97268002  0.67494612     0.78600
O1912       O  0.04390147  0.59306928  0.66259417    -0.59700
O1913       O  0.50739974  0.57295695  0.64261259    -0.52800
C1914       C  0.02861462  0.59194712  0.64743133     0.70600
O1915       O  0.07785101  0.56386701  0.70162912    -0.74300
O1916       O  0.06008041  0.53035401  0.72979732    -0.54900
C1917       C  0.08008007  0.55097866  0.71656842     0.76600
O1918       O  0.00118454  0.49794563  0.59048585    -0.59400
O1919       O  0.48176903  0.51818895  0.60028210    -0.52600
C1920       C  0.49135158  0.50781534  0.58119280     0.73200
Zr1921     Zr  0.01003823  0.99208039  0.63732482     2.54700
O1922       O  0.05226911  0.51472243  0.60917546    -0.80000
O1923       O  0.48057726  0.94759017  0.61232724    -0.93400
Zr1924     Zr  0.04298769  0.56377229  0.68929854     2.64700
O1925       O  0.08637726  0.59130918  0.66182530    -0.98400
O1926       O  0.05987806  0.60326468  0.72558079    -0.80400
O1927       O  0.03387275  0.52128229  0.68066575    -0.83800
O1928       O  0.01879385  0.53588051  0.64726704    -2.18500
O1929       O  0.40908904  0.95997883  0.66972451    -0.67200
O1930       O  0.42973068  0.49511536  0.64654686    -0.51800
C1931       C  0.40798325  0.97402480  0.65526449     0.71600
O1932       O  0.48620744  0.52525857  0.79018499    -0.60100
O1933       O  0.00611708  0.00533854  0.77843680    -0.52100
C1934       C  0.49584979  0.01567340  0.79832326     0.73400
O1935       O  0.45983931  0.55270875  0.72855259    -0.71500
O1936       O  0.45853219  0.54858351  0.67957544    -0.50200
C1937       C  0.45416853  0.55607435  0.70585174     0.74800
O1938       O  0.44048925  0.93347054  0.71767213    -0.66800
O1939       O  0.48042958  0.95500313  0.73705104    -0.54000
C1940       C  0.45597275  0.93392221  0.73169761     0.73100
Zr1941     Zr  0.44282688  0.96409575  0.69198065     2.77500
O1942       O  0.40212428  0.94505423  0.72425933    -0.97600
O1943       O  0.42248807  0.92176470  0.65958548    -0.78400
Zr1944     Zr  0.47979008  0.53396600  0.74247099     2.70100
O1945       O  0.43864801  0.01767501  0.77443390    -0.79600
O1946       O  0.50450860  0.57898080  0.77024849    -0.98700
Zr1947     Zr  0.01094042  0.99934139  0.72352720     2.21500
Zr1948     Zr  0.47767272  0.52654145  0.65581610     2.11100
O1949       O  0.45384039  0.00746488  0.70083965    -2.47400
O1950       O  0.46803232  0.99122071  0.73358457    -0.79400
O1951       O  0.46555199  0.98423262  0.64813463    -0.71600
O1952       O  0.02079124  0.54283408  0.73302389    -2.32600
O1953       O  0.48463685  0.97280589  0.68171839    -2.28800
O1954       O  0.50276356  0.55449262  0.69817740    -0.73400
H1955       H  0.02828447  0.54555050  0.63049579     0.78600
H1956       H  0.03186782  0.55401066  0.74917969     0.79700
H1957       H  0.43710133  0.00462489  0.70456135     0.81900
H1958       H  0.48101472  0.95550463  0.67917460     0.79500
H1959       H  0.06949131  0.60225764  0.73845664     0.42600
H1960       H  0.00723579  0.58791244  0.76085433     0.41500
H1961       H  0.42899222  0.99785094  0.77330196     0.41200
H1962       H  0.40694965  0.94432880  0.74239562     0.39100
H1963       H  0.42638117  0.92723467  0.64010414     0.42300
H1964       H  0.47400220  0.93537116  0.62707385     0.37100
H1965       H  0.06422659  0.53376838  0.61854061     0.43200
H1966       H  0.08187836  0.58663927  0.64149283     0.39600
H1967       H  0.40050118  0.95965753  0.72911662     0.44500
H1968       H  0.49377768  0.94643819  0.59952591     0.43200
H1969       H  0.09324096  0.61038379  0.66703212     0.43400
H1970       H  0.49085236  0.58157726  0.77693837     0.43700
C1971       C  0.14928085  0.84279716  0.86120928     0.30200
C1972       C  0.15960169  0.86530621  0.91676346     0.30200
C1973       C  0.14147752  0.86136750  0.87295238    -0.06000
C1974       C  0.13616808  0.82289578  0.88345962    -0.06800
C1975       C  0.17959093  0.86272552  0.86725733    -0.06700
C1976       C  0.14684171  0.87261436  0.90125396    -0.06100
C1977       C  0.14190036  0.83397086  0.91154738    -0.06800
C1978       C  0.18488257  0.87391207  0.89618150    -0.06700
C1979       C  0.13885118  0.88841337  0.90854464    -0.32100
N1980       N  0.12872494  0.88716286  0.88526633     0.14400
C1981       C  0.13072253  0.87125924  0.86311822    -0.32100
H1982       H  0.12421098  0.86678080  0.84178273     0.16300
C1983       C  0.12941418  0.81230000  0.92743269    -0.31100
N1984       N  0.11535862  0.78859199  0.90941394     0.13100
C1985       C  0.11991111  0.79500659  0.88239946    -0.31100
C1986       C  0.21238394  0.88961387  0.89774058    -0.31400
N1987       N  0.22400571  0.88992070  0.87081779     0.13600
H1988       H  0.22347172  0.89932223  0.91691037     0.16300
C1989       C  0.20429505  0.87378625  0.85196722    -0.31400
H1990       H  0.20782842  0.87043624  0.82893962     0.16300
H1991       H  0.11225785  0.78038105  0.86323761     0.16300
H1992       H  0.13967793  0.89944942  0.92943808     0.16300
H1993       H  0.13000322  0.81360696  0.95037608     0.16300
C1994       C  0.14639123  0.85343776  0.61578506     0.30200
C1995       C  0.13924901  0.84084374  0.66959504     0.30200
C1996       C  0.13267527  0.86241674  0.63933449    -0.06000
C1997       C  0.12957332  0.82268577  0.61836874    -0.06800
C1998       C  0.17269100  0.86729372  0.63010061    -0.06700
C1999       C  0.12822533  0.85513193  0.66646583    -0.06100
C2000       C  0.12693889  0.81683870  0.64578047    -0.06800
C2001       C  0.16903316  0.86006361  0.65725809    -0.06700
C2002       C  0.11922377  0.86780104  0.68524039    -0.32100
N2003       N  0.11938574  0.88361500  0.67020317     0.14400
C2004       C  0.12869988  0.88147147  0.64280692    -0.32100
H2005       H  0.13294190  0.89382658  0.62695576     0.16300
C2006       C  0.11413032  0.78951840  0.64426324    -0.31100
N2007       N  0.10721718  0.77787922  0.61702840     0.13100
C2008       C  0.11686886  0.79788318  0.60059159    -0.31100
C2009       C  0.19435270  0.87171280  0.66488188    -0.31400
N2010       N  0.21334571  0.88778534  0.64463805     0.13600
H2011       H  0.19876591  0.86799054  0.68320884     0.16300
C2012       C  0.20025946  0.88525570  0.62330377    -0.31400
H2013       H  0.21014183  0.89546886  0.60405796     0.16300
H2014       H  0.11516554  0.79474226  0.57761022     0.16300
H2015       H  0.11423842  0.86666544  0.70818574     0.16300
H2016       H  0.10992987  0.77860075  0.66173390     0.16300
C2017       C  0.14169830  0.80514422  0.78533684    -0.11200
C2018       C  0.12165749  0.80480511  0.77778295     0.15300
C2019       C  0.10478056  0.80653070  0.79943956     0.02200
C2020       C  0.11349619  0.81673310  0.82700720    -0.15600
C2021       C  0.13918173  0.82647855  0.83241852    -0.10400
C2022       C  0.15047121  0.81559794  0.81314455     0.08900
C2023       C  0.12605657  0.81414850  0.75041322     0.10000
S2024       S  0.07501132  0.80058844  0.79173873    -0.24700
H2025       H  0.10108156  0.81890212  0.84383757     0.20200
S2026       S  0.17508354  0.81363133  0.82157046    -0.30400
H2027       H  0.15294949  0.80100690  0.76877549     0.10500
C2028       C  0.14943565  0.84088911  0.74510050     0.03700
C2029       C  0.15288247  0.84973968  0.71922411    -0.12700
C2030       C  0.13319701  0.83293210  0.69926894    -0.08400
C2031       C  0.10735987  0.80960780  0.70822846     0.07200
C2032       C  0.10498476  0.79884345  0.73215146    -0.13500
S2033       S  0.17417500  0.86461855  0.77160444    -0.30400
H2034       H  0.17031760  0.87026352  0.71523486     0.11400
S2035       S  0.07705459  0.79530144  0.69161222    -0.27500
H2036       H  0.08616664  0.77949694  0.73778177     0.08700
H2037       H  0.16857066  0.81329520  0.85134974     0.27100
H2038       H  0.19044695  0.88754342  0.75630211     0.21900
H2039       H  0.05853522  0.77509389  0.71008900     0.27200
H2040       H  0.06415020  0.79948612  0.82043051     0.16000
C2041       C  0.14012335  0.86925243  0.99619882    -0.11200
C2042       C  0.16542445  0.88927173  0.00733406     0.15300
C2043       C  0.18821648  0.90581067  0.98891132     0.02200
C2044       C  0.18578418  0.89908297  0.95926937    -0.15600
C2045       C  0.16103680  0.87607954  0.94809131    -0.10400
C2046       C  0.13721506  0.86357899  0.96706727     0.08900
C2047       C  0.15951226  0.88394439  0.53703862     0.10000
S2048       S  0.22065273  0.93487783  0.00204822    -0.24700
H2049       H  0.20312999  0.91225760  0.94528340     0.20200
S2050       S  0.10212152  0.83898505  0.95780311    -0.30400
H2051       H  0.12231887  0.85654900  0.01029069     0.10500
C2052       C  0.13973854  0.88028755  0.55835662     0.03700
C2053       C  0.13249117  0.86499735  0.58007211    -0.12700
C2054       C  0.14909840  0.85972375  0.58575328    -0.08400
C2055       C  0.16827182  0.86214360  0.56361375     0.07200
C2056       C  0.17318702  0.87430338  0.53951796    -0.13500
S2057       S  0.12297657  0.89414233  0.55735440    -0.30400
H2058       H  0.11403709  0.85783906  0.59313316     0.11400
S2059       S  0.18515637  0.84799787  0.56218678    -0.27500
H2060       H  0.18666114  0.87484876  0.52178512     0.08700
H2061       H  0.10415181  0.83807636  0.92798401     0.27100
H2062       H  0.10781413  0.88647314  0.58393947     0.21900
H2063       H  0.17099020  0.83264566  0.58540396     0.27200
H2064       H  0.20412719  0.93513159  0.53371988     0.16000
C2065       C  0.05477205  0.70296459  0.62042983    -0.11200
C2066       C  0.07045024  0.69458069  0.61143931     0.15300
C2067       C  0.09676969  0.71302861  0.59858267     0.02200
C2068       C  0.10766011  0.74004598  0.59754720    -0.15600
C2069       C  0.09277408  0.74908543  0.60876949    -0.10400
C2070       C  0.06562282  0.72991884  0.61928972     0.08900
C2071       C  0.06041739  0.66828361  0.61977807     0.10000
S2072       S  0.11821898  0.70395805  0.58545679    -0.24700
H2073       H  0.12860528  0.75470779  0.58999380     0.20200
S2074       S  0.04454252  0.73920960  0.63402882    -0.30400
H2075       H  0.03452734  0.68892197  0.63017577     0.10500
C2076       C  0.06989776  0.66790298  0.64388609     0.03700
C2077       C  0.05955380  0.64283944  0.65189651    -0.12700
C2078       C  0.03989254  0.61777602  0.63628620    -0.08400
C2079       C  0.03102707  0.61837888  0.61155211     0.07200
C2080       C  0.04089452  0.64346889  0.60400600    -0.13500
S2081       S  0.09448979  0.69939499  0.66526361    -0.30400
H2082       H  0.06639157  0.64282235  0.67098062     0.11400
S2083       S  0.00815256  0.58812715  0.58797323    -0.27500
H2084       H  0.03375393  0.64370450  0.58530066     0.08700
H2085       H  0.06088912  0.76473692  0.62361211     0.27100
H2086       H  0.09914153  0.68790560  0.68282740     0.21900
H2087       H  0.02019946  0.57633872  0.58872502     0.27200
H2088       H  0.09720682  0.67582924  0.57909338     0.16000
C2089       C  0.33378675  0.92388605  0.63866569    -0.11200
C2090       C  0.32678628  0.94096717  0.64424545     0.15300
C2091       C  0.34726707  0.96936990  0.65135594     0.02200
C2092       C  0.37378671  0.97976273  0.65355410    -0.15600
C2093       C  0.38066838  0.96256442  0.64849457    -0.10400
C2094       C  0.36037829  0.93434206  0.64018393     0.08900
C2095       C  0.29783854  0.92830722  0.64362218     0.10000
S2096       S  0.34086105  0.99340078  0.65828457    -0.24700
H2097       H  0.39034136  0.49819951  0.65422316     0.20200
S2098       S  0.36718236  0.91063422  0.63060916    -0.30400
H2099       H  0.31832522  0.90212048  0.63307602     0.10500
C2100       C  0.28402130  0.91438997  0.61809867     0.03700
C2101       C  0.25641617  0.90170573  0.61884592    -0.12700
C2102       C  0.24215444  0.90277343  0.64451593    -0.08400
C2103       C  0.25641590  0.91772742  0.66980298     0.07200
C2104       C  0.28375318  0.92973732  0.66918784    -0.13500
S2105       S  0.30162604  0.91314477  0.58438839    -0.30400
H2106       H  0.24568977  0.89041016  0.59945077     0.11400
S2107       S  0.24141870  0.92344013  0.70320938    -0.27500
H2108       H  0.29427724  0.94061828  0.68880317     0.08700
H2109       H  0.39344243  0.92954779  0.61831347     0.27100
H2110       H  0.27955058  0.89814993  0.56717186     0.21900
H2111       H  0.22443335  0.92448812  0.69010921     0.27200
H2112       H  0.31982198  0.97882586  0.63970399     0.16000
C2113       C  0.11494855  0.93920094  0.67693046    -0.11200
C2114       C  0.08685702  0.92440508  0.68083197     0.15300
C2115       C  0.07015067  0.89675211  0.68602933     0.02200
C2116       C  0.08159310  0.88410731  0.68488289    -0.15600
C2117       C  0.10950705  0.89862982  0.67955565    -0.10400
C2118       C  0.12637762  0.92676614  0.67687541     0.08900
C2119       C  0.07556682  0.93796055  0.67814222     0.10000
S2120       S  0.03409624  0.87636699  0.69357540    -0.24700
H2121       H  0.06854536  0.86245150  0.68675395     0.20200
S2122       S  0.16263331  0.94746907  0.67234685    -0.30400
H2123       H  0.12805193  0.96047938  0.67332201     0.10500
C2124       C  0.08204531  0.96115284  0.69699292     0.03700
C2125       C  0.07039087  0.97278396  0.69414076    -0.12700
C2126       C  0.05174633  0.96151602  0.67326843    -0.08400
C2127       C  0.04553012  0.93845243  0.65421957     0.07200
C2128       C  0.05792102  0.92736676  0.65642705    -0.13500
S2129       S  0.10359696  0.97491475  0.72611104    -0.30400
H2130       H  0.07513442  0.99031496  0.70904047     0.11400
S2131       S  0.51228233  0.91722554  0.62805474    -0.27500
H2132       H  0.05294114  0.90961616  0.64178061     0.08700
H2133       H  0.16414172  0.93032049  0.68430843     0.27100
H2134       H  0.10603830  0.49938796  0.73362364     0.21900
H2135       H  0.49524313  0.92037908  0.64790523     0.27200
H2136       H  0.03462572  0.89814270  0.70768532     0.16000
C2137       C  0.06066167  0.71292411  0.90744628    -0.11200
C2138       C  0.07220152  0.70586418  0.92144367     0.15300
C2139       C  0.09645285  0.72692169  0.93517893     0.02200
C2140       C  0.10982622  0.75428186  0.93225000    -0.15600
C2141       C  0.09903954  0.76116186  0.91668192    -0.10400
C2142       C  0.07339012  0.74024427  0.90565721     0.08900
C2143       C  0.06017465  0.67667612  0.91856447     0.10000
S2144       S  0.11154674  0.72011317  0.95616733    -0.24700
H2145       H  0.12922145  0.77023338  0.94125308     0.20200
S2146       S  0.05588452  0.74719072  0.88911207    -0.30400
H2147       H  0.04186931  0.69699917  0.89725106     0.10500
C2148       C  0.03349276  0.65632449  0.92913940     0.03700
C2149       C  0.02326928  0.62908258  0.92564848    -0.12700
C2150       C  0.03910861  0.62173894  0.91163925    -0.08400
C2151       C  0.06521086  0.64183002  0.89970092     0.07200
C2152       C  0.07550986  0.66902612  0.90344773    -0.13500
S2153       S  0.01291906  0.66500430  0.94875881    -0.30400
H2154       H  0.00338704  0.61369537  0.93520663     0.11400
S2155       S  0.08613473  0.63391846  0.87919796    -0.27500
H2156       H  0.09564279  0.68439285  0.89435550     0.08700
H2157       H  0.06755177  0.77307713  0.90487089     0.27100
H2158       H  0.48945773  0.63752456  0.95721378     0.21900
H2159       H  0.06471250  0.60671392  0.86948267     0.27200
H2160       H  0.08722518  0.69537130  0.96455243     0.16000
C2161       C  0.33433809  0.92571466  0.89440992    -0.11200
C2162       C  0.33322263  0.93449396  0.87061832     0.15300
C2163       C  0.35749293  0.95395365  0.85531292     0.02200
C2164       C  0.38232152  0.96433225  0.86429555    -0.15600
C2165       C  0.38360933  0.95575650  0.88840245    -0.10400
C2166       C  0.35901930  0.93618827  0.90373003     0.08900
C2167       C  0.30635820  0.92449578  0.86447201     0.10000
S2168       S  0.35808391  0.96662834  0.82453493    -0.24700
H2169       H  0.40080449  0.97936717  0.85241772     0.20200
S2170       S  0.35832450  0.92600996  0.93682830    -0.30400
H2171       H  0.31562328  0.91127759  0.90641770     0.10500
C2172       C  0.28688841  0.89749197  0.85202328     0.03700
C2173       C  0.25999087  0.88695145  0.85217865    -0.12700
C2174       C  0.25226744  0.90295530  0.86457685    -0.08400
C2175       C  0.27234100  0.93072017  0.87458309     0.07200
C2176       C  0.29903775  0.94109234  0.87482513    -0.13500
S2177       S  0.29619367  0.87622587  0.83702489    -0.30400
H2178       H  0.24459759  0.86575577  0.84429378     0.11400
S2179       S  0.26482478  0.95362853  0.88779110    -0.27500
H2180       H  0.31401409  0.96196051  0.88408536     0.08700
H2181       H  0.33371675  0.43115045  0.95554694     0.27100
H2182       H  0.27060956  0.85307327  0.82782143     0.21900
H2183       H  0.24199384  0.93925308  0.87189912     0.27200
H2184       H  0.33258596  0.94304784  0.81566156     0.16000
C2185       C  0.07832016  0.89930814  0.90127352    -0.11200
C2186       C  0.09337169  0.92538231  0.89268422     0.15300
C2187       C  0.11988685  0.93808558  0.87983179     0.02200
C2188       C  0.13073617  0.92456970  0.87644736    -0.15600
C2189       C  0.11576300  0.89869557  0.88550600    -0.10400
C2190       C  0.08916255  0.88586881  0.89779084     0.08900
C2191       C  0.08087063  0.93877384  0.89841419     0.10000
S2192       S  0.14133405  0.97162156  0.86797200    -0.24700
H2193       H  0.15128050  0.93455387  0.86738166     0.20200
S2194       S  0.06842390  0.85283694  0.91051721    -0.30400
H2195       H  0.05802813  0.88949232  0.91115380     0.10500
C2196       C  0.06237094  0.93240062  0.88000314     0.03700
C2197       C  0.04989767  0.94444431  0.88699098    -0.12700
C2198       C  0.05557039  0.96294436  0.91205361    -0.08400
C2199       C  0.07486504  0.96987672  0.92998454     0.07200
C2200       C  0.08690958  0.95744154  0.92321340    -0.13500
S2201       S  0.05483024  0.90903631  0.84746894    -0.30400
H2202       H  0.03530578  0.93908585  0.87305409     0.11400
S2203       S  0.08615955  0.99543108  0.96085884    -0.27500
H2204       H  0.10138834  0.96260003  0.93721300     0.08700
H2205       H  0.08102315  0.84308310  0.89265637     0.27100
H2206       H  0.03517962  0.90891988  0.83884177     0.21900
H2207       H  0.08608391  0.01284250  0.94750202     0.27200
H2208       H  0.12194145  0.97512468  0.86963442     0.16000
C2209       C  0.38154288  0.59598089  0.70435002    -0.11200
C2210       C  0.40048636  0.60417344  0.72328624     0.15300
C2211       C  0.40707819  0.62511640  0.74617683     0.02200
C2212       C  0.39421086  0.63666961  0.75001970    -0.15600
C2213       C  0.37542771  0.62862670  0.73098892    -0.10400
C2214       C  0.36892873  0.60781573  0.70802790     0.08900
C2215       C  0.41322575  0.59081377  0.71851570     0.10000
S2216       S  0.43232986  0.63866137  0.77074970    -0.24700
H2217       H  0.39964421  0.65287883  0.76741679     0.20200
S2218       S  0.34407232  0.59493356  0.68331220    -0.30400
H2219       H  0.37628838  0.57997649  0.68674568     0.10500
C2220       C  0.40695472  0.57264507  0.73703674     0.03700
C2221       C  0.42094788  0.56215142  0.73285402    -0.12700
C2222       C  0.44095553  0.56898885  0.71016554    -0.08400
C2223       C  0.44668173  0.58681299  0.69125945     0.07200
C2224       C  0.43268604  0.59719317  0.69548785    -0.13500
S2225       S  0.38052453  0.56219283  0.76554277    -0.30400
H2226       H  0.41591345  0.54811326  0.74703206     0.11400
S2227       S  0.47264692  0.59845641  0.66221445    -0.27500
H2228       H  0.43764628  0.61113032  0.68117379     0.08700
H2229       H  0.32811373  0.59959033  0.70323283     0.27100
H2230       H  0.38126370  0.54345418  0.77504684     0.21900
H2231       H  0.49105542  0.60203363  0.67828749     0.27200
H2232       H  0.44828275  0.63360990  0.75151879     0.16000
C2233       C  0.43136886  0.82684296  0.76669915    -0.11200
C2234       C  0.41431493  0.83364629  0.77160500     0.15300
C2235       C  0.38686599  0.81398303  0.78062168     0.02200
C2236       C  0.37665119  0.78737911  0.78244512    -0.15600
C2237       C  0.39330500  0.78004084  0.77536981    -0.10400
C2238       C  0.42115206  0.80031374  0.76859417     0.08900
C2239       C  0.42463349  0.85958029  0.76248783     0.10000
S2240       S  0.36350864  0.82100777  0.78763488    -0.24700
H2241       H  0.35519688  0.77176906  0.78719165     0.20200
S2242       S  0.44407734  0.79276769  0.75988001    -0.30400
H2243       H  0.45243589  0.84185900  0.75971347     0.10500
C2244       C  0.44166538  0.88488892  0.77921634     0.03700
C2245       C  0.45161867  0.90894299  0.76885733    -0.12700
C2246       C  0.44499924  0.90810343  0.74186757    -0.08400
C2247       C  0.42832483  0.88254343  0.72493989     0.07200
C2248       C  0.41797537  0.85866735  0.73566550    -0.13500
S2249       S  0.45057661  0.88654928  0.81376940    -0.30400
H2250       H  0.46462603  0.92843009  0.78180737     0.11400
S2251       S  0.42110248  0.87897632  0.68862784    -0.27500
H2252       H  0.40532191  0.83918764  0.72253474     0.08700
H2253       H  0.42827639  0.76929205  0.77425961     0.27100
H2254       H  0.45636760  0.91167378  0.82458662     0.21900
H2255       H  0.44744747  0.90181849  0.68063184     0.27200
H2256       H  0.38278600  0.84933335  0.79515776     0.16000
C2257       C  0.15161146  0.57658961  0.69343161    -0.11200
C2258       C  0.16259540  0.58459475  0.72002654     0.15300
C2259       C  0.14571622  0.57990644  0.74570441     0.02200
C2260       C  0.11847063  0.56759031  0.74405600    -0.15600
C2261       C  0.10775690  0.56042862  0.71742522    -0.10400
C2262       C  0.12453471  0.56447541  0.69181661     0.08900
C2263       C  0.19189988  0.59871354  0.71998565     0.10000
S2264       S  0.15752905  0.58976720  0.78132256    -0.24700
H2265       H  0.10585241  0.56467410  0.76377736     0.20200
S2266       S  0.11259980  0.55439352  0.65627951    -0.30400
H2267       H  0.16432538  0.57990262  0.67369289     0.10500
C2268       C  0.20132675  0.58506727  0.72384875     0.03700
C2269       C  0.22924255  0.59971983  0.72469791    -0.12700
C2270       C  0.24798981  0.62775551  0.72169914    -0.08400
C2271       C  0.23840809  0.64128836  0.71775125     0.07200
C2272       C  0.21063957  0.62656777  0.71636419    -0.13500
S2273       S  0.17777977  0.54912292  0.72802949    -0.30400
H2274       H  0.23661714  0.58955556  0.72829169     0.11400
S2275       S  0.26032900  0.67758547  0.71627781    -0.27500
H2276       H  0.20344761  0.63715389  0.71358017     0.08700
H2277       H  0.08616005  0.53149302  0.66375937     0.27100
H2278       H  0.19687937  0.54706990  0.73366638     0.21900
H2279       H  0.27837394  0.68468130  0.73575424     0.27200
H2280       H  0.18541839  0.60757419  0.77406282     0.16000
C2281       C  0.37955211  0.59208709  0.99218722    -0.11200
C2282       C  0.40030914  0.59960009  0.97054399     0.15300
C2283       C  0.40519494  0.61544765  0.94976870     0.02200
C2284       C  0.38961066  0.62383953  0.95154576    -0.15600
C2285       C  0.36906796  0.61661410  0.97353517    -0.10400
C2286       C  0.36369005  0.59993615  0.99361020     0.08900
C2287       C  0.41369498  0.58732257  0.96812634     0.10000
S2288       S  0.43103962  0.62573294  0.92063296    -0.24700
H2289       H  0.39407774  0.63680427  0.93626421     0.20200
S2290       S  0.32852213  0.57886662  0.51164893    -0.30400
H2291       H  0.37503406  0.57912904  0.00753633     0.10500
C2292       C  0.43065110  0.59362512  0.48085434     0.03700
C2293       C  0.44381932  0.58258409  0.98450760    -0.12700
C2294       C  0.43557170  0.56022974  0.96332456    -0.08400
C2295       C  0.41554937  0.55111634  0.94506816     0.07200
C2296       C  0.40526679  0.56490520  0.94736851    -0.13500
S2297       S  0.44373765  0.62539890  0.50354615    -0.30400
H2298       H  0.46028137  0.59139974  0.49094049     0.11400
S2299       S  0.40100340  0.52105829  0.91930992    -0.27500
H2300       H  0.38990338  0.55759801  0.93329456     0.08700
H2301       H  0.31422230  0.58182380  0.49621861     0.27100
H2302       H  0.46540136  0.62921293  0.51289480     0.21900
H2303       H  0.40141012  0.50636652  0.93698500     0.27200
H2304       H  0.44746820  0.62407260  0.93389082     0.16000
C2305       C  0.41757084  0.80029597  0.48095091    -0.11200
C2306       C  0.40683634  0.81453863  0.98222153     0.15300
C2307       C  0.37905359  0.79455699  0.97731430     0.02200
C2308       C  0.36609476  0.76685881  0.97771699    -0.15600
C2309       C  0.38037211  0.75842293  0.98200515    -0.10400
C2310       C  0.40345920  0.77237581  0.48160698     0.08900
C2311       C  0.42163563  0.84415372  0.98188184     0.10000
S2312       S  0.35907720  0.80303843  0.97021156    -0.24700
H2313       H  0.34463701  0.75169556  0.97485766     0.20200
S2314       S  0.42290169  0.76098201  0.47851338    -0.30400
H2315       H  0.43946254  0.81407829  0.47906554     0.10500
C2316       C  0.41732518  0.85971570  0.00392860     0.03700
C2317       C  0.43037884  0.88713059  0.00113091    -0.12700
C2318       C  0.44757994  0.89914818  0.97672773    -0.08400
C2319       C  0.45226061  0.88367250  0.95512923     0.07200
C2320       C  0.43945847  0.85653869  0.95799497    -0.13500
S2321       S  0.39488444  0.84454599  0.03527585    -0.30400
H2322       H  0.42655933  0.89897026  0.01744905     0.11400
S2323       S  0.47312987  0.89705948  0.92255981    -0.27500
H2324       H  0.44274489  0.84467007  0.94097683     0.08700
H2325       H  0.40337394  0.73444454  0.46540253     0.27100
H2326       H  0.39654385  0.86726410  0.04809998     0.21900
H2327       H  0.49287755  0.92291410  0.93661187     0.27200
H2328       H  0.38006412  0.82592114  0.95590847     0.16000
C2329       C  0.14868334  0.57799004  0.98370165    -0.11200
C2330       C  0.15016894  0.57808028  0.01282007     0.15300
C2331       C  0.12398757  0.55989818  0.52979571     0.02200
C2332       C  0.09979768  0.54990871  0.51931594    -0.15600
C2333       C  0.10061786  0.55557772  0.99139979    -0.10400
C2334       C  0.12432411  0.56670727  0.97276256     0.08900
C2335       C  0.17699372  0.59048035  0.02238719     0.10000
S2336       S  0.12192426  0.55111257  0.56442489    -0.24700
H2337       H  0.08098997  0.53718754  0.53212961     0.20200
S2338       S  0.12479546  0.56627945  0.93456113    -0.30400
H2339       H  0.16671511  0.58651238  0.96920519     0.10500
C2340       C  0.18451892  0.57450714  0.02362282     0.03700
C2341       C  0.21180440  0.58738430  0.02636405    -0.12700
C2342       C  0.23174570  0.61596865  0.02833217    -0.08400
C2343       C  0.22182571  0.62615675  0.53167679     0.07200
C2344       C  0.19512308  0.61479542  0.52894141    -0.13500
S2345       S  0.15985253  0.53769427  0.01913227    -0.30400
H2346       H  0.21807966  0.57515582  0.02468049     0.11400
S2347       S  0.24661110  0.66278455  0.53754198    -0.27500
H2348       H  0.19017738  0.62821647  0.53101343     0.08700
H2349       H  0.09812071  0.54208231  0.93099078     0.27100
H2350       H  0.17673797  0.53281155  0.02505706     0.21900
H2351       H  0.26090509  0.66292390  0.55647789     0.27200
H2352       H  0.14855449  0.57354632  0.57126061     0.16000
C2353       C  0.29062197  0.65561340  0.90516710    -0.11200
C2354       C  0.29380921  0.63951343  0.88350973     0.15300
C2355       C  0.29750209  0.62212678  0.89069258     0.02200
C2356       C  0.30399435  0.62576470  0.91846860    -0.15600
C2357       C  0.30651055  0.64624583  0.93899209    -0.10400
C2358       C  0.29594264  0.65861918  0.93318611     0.08900
C2359       C  0.30328163  0.64892421  0.85516947     0.10000
S2360       S  0.29733897  0.59747203  0.86434881    -0.24700
H2361       H  0.30722927  0.61266128  0.92365339     0.20200
S2362       S  0.28977904  0.67996639  0.95816219    -0.30400
H2363       H  0.28697470  0.66846037  0.89974656     0.10500
C2364       C  0.28846293  0.65132189  0.84000190     0.03700
C2365       C  0.30046862  0.66369604  0.81479954    -0.12700
C2366       C  0.32545586  0.67071518  0.80298106    -0.08400
C2367       C  0.34202855  0.67309358  0.82095327     0.07200
C2368       C  0.33040849  0.66122919  0.84643793    -0.13500
S2369       S  0.25441226  0.63844215  0.85224267    -0.30400
H2370       H  0.29043698  0.66816126  0.80461127     0.11400
S2371       S  0.37809303  0.69268413  0.81310822    -0.27500
H2372       H  0.34267973  0.66210005  0.86002772     0.08700
H2373       H  0.29580813  0.67965433  0.98460501     0.27100
H2374       H  0.24964875  0.64498241  0.82903933     0.21900
H2375       H  0.38435757  0.69689116  0.84158160     0.27200
H2376       H  0.28407045  0.59717002  0.84380499     0.16000
C2377       C  0.38265308  0.70005891  0.57708290    -0.11200
C2378       C  0.36499025  0.68597205  0.59990173     0.15300
C2379       C  0.33848469  0.66184268  0.59522074     0.02200
C2380       C  0.32881976  0.65481461  0.56849374    -0.15600
C2381       C  0.34510528  0.67125759  0.54629682    -0.10400
C2382       C  0.37350201  0.69212482  0.54972851     0.08900
C2383       C  0.37225305  0.69893290  0.62894862     0.10000
S2384       S  0.31547691  0.64030227  0.62304890    -0.24700
H2385       H  0.30862250  0.63601599  0.56515579     0.20200
S2386       S  0.40012203  0.70990732  0.52176727    -0.30400
H2387       H  0.40346632  0.71777159  0.58082724     0.10500
C2388       C  0.38768315  0.69698551  0.64341131     0.03700
C2389       C  0.38390524  0.69831829  0.67326930    -0.12700
C2390       C  0.36275200  0.69804711  0.68761705    -0.08400
C2391       C  0.35285012  0.70725258  0.67362726     0.07200
C2392       C  0.35783022  0.70744811  0.64404461    -0.13500
S2393       S  0.40920851  0.68943885  0.62396500    -0.30400
H2394       H  0.39637243  0.69804303  0.68503538     0.11400
S2395       S  0.33285186  0.71768854  0.69015148    -0.27500
H2396       H  0.34769854  0.71098459  0.63234666     0.08700
H2397       H  0.38688213  0.69362836  0.49683603     0.27100
H2398       H  0.41596905  0.68607879  0.64818376     0.21900
H2399       H  0.33431591  0.71841747  0.71926168     0.27200
H2400       H  0.33543990  0.64680566  0.63911878     0.16000
C2401       C  0.81496188  0.14924845  0.46738720     0.30200
C2402       C  0.83142970  0.16247074  0.01942705     0.30200
C2403       C  0.82962786  0.13848236  0.47179662    -0.06000
C2404       C  0.83591875  0.18005601  0.47734124    -0.06800
C2405       C  0.79269606  0.13816916  0.49177022    -0.06700
C2406       C  0.83659344  0.14453365  0.99851406    -0.06100
C2407       C  0.84236108  0.18593476  0.00233440    -0.06800
C2408       C  0.80035592  0.14530976  0.01924213    -0.06700
C2409       C  0.84946674  0.13449783  0.00025471    -0.32100
N2410       N  0.85060556  0.12195789  0.47512606     0.14400
C2411       C  0.83895415  0.12463778  0.45658403    -0.32100
H2412       H  0.83769146  0.11715108  0.43390241     0.16300
C2413       C  0.85900327  0.21419671  0.00672465    -0.31100
N2414       N  0.86174038  0.22358055  0.98208790     0.13100
C2415       C  0.84915686  0.20441123  0.46632333    -0.31100
C2416       C  0.77782640  0.13736097  0.03827110    -0.31400
N2417       N  0.75587249  0.12362012  0.02264594     0.13600
H2418       H  0.77752257  0.14216828  0.06146792     0.16300
C2419       C  0.76550072  0.12466147  0.49318871    -0.31400
H2420       H  0.75347330  0.11746508  0.47519472     0.16300
H2421       H  0.84790309  0.20659830  0.44488193     0.16300
H2422       H  0.85879492  0.13732513  0.01886380     0.16300
H2423       H  0.86823198  0.22701102  0.02647988     0.16300
C2424       C  0.85464819  0.18886484  0.21876129     0.30200
C2425       C  0.83686468  0.17707165  0.27388036     0.30200
C2426       C  0.86183609  0.17309817  0.22933885    -0.06000
C2427       C  0.86514846  0.21317783  0.24189318    -0.06800
C2428       C  0.82361103  0.16968462  0.22476537    -0.06700
C2429       C  0.85241834  0.16697591  0.25766971    -0.06100
C2430       C  0.85555092  0.20741965  0.26984703    -0.06800
C2431       C  0.81454447  0.16361918  0.25295315    -0.06700
C2432       C  0.85314901  0.14667329  0.26102468    -0.32100
N2433       N  0.86367221  0.14090589  0.23626547     0.14400
C2434       C  0.86814516  0.15617080  0.21652273    -0.32100
H2435       H  0.87466525  0.15424500  0.19420395     0.16300
C2436       C  0.86556375  0.23207250  0.28671424    -0.31100
N2437       N  0.88162138  0.25234015  0.26932302     0.13100
C2438       C  0.88145559  0.24094634  0.24194753    -0.31100
C2439       C  0.78661136  0.14540660  0.25381648    -0.31400
N2440       N  0.77855297  0.14151846  0.22761508     0.13600
H2441       H  0.77268264  0.13559377  0.27204617     0.16300
C2442       C  0.80091350  0.15560679  0.20934292    -0.31400
H2443       H  0.80064340  0.15632530  0.18689977     0.16300
H2444       H  0.89155753  0.25203913  0.22327382     0.16300
H2445       H  0.84570887  0.13610653  0.27989151     0.16300
H2446       H  0.86137882  0.23502585  0.30967320     0.16300
O2447       O  0.53667787  0.48011013  0.39824022    -0.75100
O2448       O  0.53169549  0.47604469  0.44627092    -0.54100
C2449       C  0.54063337  0.47417182  0.42001071     0.78600
O2450       O  0.54323969  0.09255088  0.42370815    -0.59700
O2451       O  0.00416214  0.07185462  0.40094523    -0.52800
C2452       C  0.52821730  0.09294093  0.40991263     0.70600
O2453       O  0.57380626  0.06165389  0.46740673    -0.74300
O2454       O  0.55285023  0.02265973  0.48768297    -0.54900
C2455       C  0.57380019  0.04679462  0.48192321     0.76600
O2456       O  0.00566599  0.00297839  0.33817042    -0.59400
O2457       O  0.98370416  0.02062714  0.35004713    -0.52600
C2458       C  0.99487317  0.01233409  0.33033073     0.73200
Zr2459     Zr  0.51395371  0.49583448  0.38614946     2.54700
O2460       O  0.55672230  0.01829838  0.36125906    -0.80000
O2461       O  0.99375158  0.45190309  0.35531154    -0.93400
Zr2462     Zr  0.54202379  0.05964660  0.44328397     2.64700
O2463       O  0.58392113  0.08192227  0.41267115    -0.98400
O2464       O  0.56108400  0.09971491  0.47904940    -0.80400
O2465       O  0.53319039  0.01740295  0.43140887    -0.83800
O2466       O  0.52064465  0.03620090  0.39873771    -2.18500
O2467       O  0.91106891  0.45173373  0.40826327    -0.67200
O2468       O  0.92989845  0.99079632  0.39180646    -0.51800
C2469       C  0.91004705  0.46670324  0.39534259     0.71600
O2470       O  0.98076782  0.01720575  0.03815455    -0.60100
O2471       O  0.49904728  0.49447656  0.02761509    -0.52100
C2472       C  0.99192709  0.50784570  0.04791132     0.73400
O2473       O  0.95227143  0.04128288  0.47978478    -0.71500
O2474       O  0.95222319  0.03953669  0.43094313    -0.50200
C2475       C  0.94617584  0.04454586  0.45751610     0.74800
O2476       O  0.93848216  0.42229772  0.45768341    -0.66800
O2477       O  0.97665078  0.44240179  0.48016579    -0.54000
C2478       C  0.95293390  0.42151432  0.47198756     0.73100
Zr2479     Zr  0.94232016  0.45547408  0.43497785     2.77500
O2480       O  0.90003047  0.43452817  0.46466850    -0.97600
O2481       O  0.92512335  0.41449322  0.40099709    -0.78400
Zr2482     Zr  0.97368251  0.02351906  0.49102644     2.70100
O2483       O  0.92924711  0.49754047  0.01781287    -0.79600
O2484       O  0.99257237  0.06669371  0.01938881    -0.98700
Zr2485     Zr  0.50732515  0.49209062  0.47221049     2.21500
Zr2486     Zr  0.97651658  0.02349354  0.40550318     2.11100
O2487       O  0.94987975  0.49708338  0.44759840    -2.47400
O2488       O  0.96286429  0.47877344  0.47986708    -0.79400
O2489       O  0.96808413  0.48108401  0.39477740    -0.71600
O2490       O  0.51570750  0.03471231  0.48356515    -2.32600
O2491       O  0.98561254  0.46758190  0.42737756    -2.28800
O2492       O  0.99890276  0.04816840  0.44990351    -0.73400
H2493       H  0.53104262  0.04753001  0.38329286     0.78600
H2494       H  0.52768049  0.04813264  0.00141338     0.79700
H2495       H  0.93238907  0.49262142  0.44994090     0.81900
H2496       H  0.98304698  0.45079111  0.42278901     0.79500
H2497       H  0.58080319  0.11144158  0.47403888     0.42600
H2498       H  0.49949183  0.08273200  0.01054715     0.41500
H2499       H  0.92565856  0.48091904  0.02164574     0.41200
H2500       H  0.89150171  0.41492627  0.46263432     0.39100
H2501       H  0.93735269  0.42122505  0.38337352     0.42300
H2502       H  0.98689363  0.43810129  0.36820367     0.37100
H2503       H  0.55440447  0.00551097  0.34398598     0.43200
H2504       H  0.57833274  0.07613148  0.39268571     0.39600
H2505       H  0.90544618  0.44141807  0.48475757     0.44500
H2506       H  0.00979188  0.45467561  0.34448442     0.43200
H2507       H  0.59242949  0.10155254  0.41615799     0.43400
H2508       H  0.01008098  0.07290350  0.02427104     0.43700
O2509       O  0.53247178  0.47509313  0.14961284    -0.75100
O2510       O  0.53296916  0.47890487  0.19868098    -0.54100
C2511       C  0.53847241  0.47250027  0.17255810     0.78600
O2512       O  0.54922842  0.09771397  0.16484802    -0.59700
O2513       O  0.00604068  0.07297198  0.14298180    -0.52800
C2514       C  0.53447440  0.09697597  0.14921169     0.70600
O2515       O  0.58129375  0.06489250  0.20116376    -0.74300
O2516       O  0.56282596  0.03067372  0.22854153    -0.54900
C2517       C  0.58312679  0.05125173  0.21539138     0.76600
O2518       O  0.50573283  0.00281056  0.08972836    -0.59400
O2519       O  0.98134986  0.01807421  0.09916891    -0.52600
C2520       C  0.99150110  0.00828853  0.08001960     0.73200
Zr2521     Zr  0.50979863  0.49119560  0.13666210     2.54700
O2522       O  0.55790278  0.02033125  0.10978073    -0.80000
O2523       O  0.98728348  0.45040980  0.11281255    -0.93400
Zr2524     Zr  0.54733793  0.06677209  0.18995360     2.64700
O2525       O  0.59099338  0.09457197  0.16299536    -0.98400
O2526       O  0.56446283  0.10479601  0.22817406    -0.80400
O2527       O  0.53723167  0.02385128  0.18037036    -0.83800
O2528       O  0.52395354  0.04008311  0.14713514    -2.18500
O2529       O  0.91277520  0.45856254  0.16916544    -0.67200
O2530       O  0.92812919  0.99477377  0.14663874    -0.51800
C2531       C  0.91070845  0.47167493  0.15440098     0.71600
O2532       O  0.98475057  0.02297854  0.28848428    -0.60100
O2533       O  0.50846189  0.50592952  0.27774557    -0.52100
C2534       C  0.99716593  0.51585752  0.29918779     0.73400
O2535       O  0.95680596  0.04904074  0.22870112    -0.71500
O2536       O  0.95666327  0.04690861  0.17982007    -0.50200
C2537       C  0.95136034  0.05299108  0.20634702     0.74800
O2538       O  0.94535136  0.43481308  0.21904194    -0.66800
O2539       O  0.98548311  0.45686272  0.23819470    -0.54000
C2540       C  0.96101957  0.43558039  0.23311528     0.73100
Zr2541     Zr  0.94692079  0.46443228  0.19245364     2.77500
O2542       O  0.90672327  0.44539643  0.22555271    -0.97600
O2543       O  0.92695406  0.42153372  0.16125468    -0.78400
Zr2544     Zr  0.97848159  0.03168276  0.24096919     2.70100
O2545       O  0.93784630  0.51368737  0.27230276    -0.79600
O2546       O  0.00465559  0.07752799  0.26679685    -0.98700
Zr2547     Zr  0.51273307  0.49920843  0.22243128     2.21500
Zr2548     Zr  0.97644794  0.02577918  0.15472455     2.11100
O2549       O  0.95597405  0.50689400  0.20098261    -2.47400
O2550       O  0.97123638  0.49165706  0.23435269    -0.79400
O2551       O  0.96948464  0.48519945  0.14887630    -0.71600
O2552       O  0.52401863  0.04460625  0.23285975    -2.32600
O2553       O  0.98940907  0.47457133  0.18237792    -2.28800
O2554       O  0.00139081  0.05308045  0.19718992    -0.73400
H2555       H  0.53379499  0.05018987  0.13069434     0.78600
H2556       H  0.53478988  0.05527668  0.24929937     0.79700
H2557       H  0.93885571  0.50330480  0.20441440     0.81900
H2558       H  0.98646571  0.45759744  0.17977317     0.79500
H2559       H  0.57810366  0.10607595  0.23667768     0.42600
H2560       H  0.48957224  0.07446047  0.28718601     0.41500
H2561       H  0.92961267  0.49422874  0.27110629     0.41200
H2562       H  0.90088986  0.45620873  0.22512053     0.39100
H2563       H  0.93378594  0.42688595  0.14150829     0.42300
H2564       H  0.98142990  0.43830738  0.12739967     0.37100
H2565       H  0.55425023  0.00821206  0.09145187     0.43200
H2566       H  0.58677189  0.08896441  0.14249076     0.39600
H2567       H  0.89271007  0.42710086  0.21576083     0.44500
H2568       H  0.00114396  0.45034365  0.10002304     0.43200
H2569       H  0.59727138  0.11347454  0.16707264     0.43400
H2570       H  0.99161547  0.07709368  0.28181311     0.43700
C2571       C  0.64999753  0.34378551  0.35920942     0.30200
C2572       C  0.65990983  0.36514489  0.41512544     0.30200
C2573       C  0.64183812  0.36192584  0.37162776    -0.06000
C2574       C  0.63688682  0.32337710  0.38082882    -0.06800
C2575       C  0.68019077  0.36364406  0.36547414    -0.06700
C2576       C  0.64731237  0.37283155  0.39996663    -0.06100
C2577       C  0.64213086  0.33379337  0.40920345    -0.06800
C2578       C  0.68531119  0.37407221  0.39455465    -0.06700
C2579       C  0.63974868  0.38893787  0.40772034    -0.32100
N2580       N  0.62929521  0.38785002  0.38488740     0.14400
C2581       C  0.63086522  0.37186536  0.36241560    -0.32100
H2582       H  0.62448106  0.36786102  0.34113390     0.16300
C2583       C  0.62940400  0.31158695  0.42433803    -0.31100
N2584       N  0.61603545  0.28832890  0.40549958     0.13100
C2585       C  0.62108017  0.29552213  0.37881517    -0.31100
C2586       C  0.71276997  0.38934878  0.39613514    -0.31400
N2587       N  0.72447787  0.39037452  0.36910534     0.13600
H2588       H  0.72375627  0.39825003  0.41531898     0.16300
C2589       C  0.70489651  0.37505890  0.35016307    -0.31400
H2590       H  0.70854433  0.37251356  0.32704068     0.16300
H2591       H  0.61399218  0.28142354  0.35922807     0.16300
H2592       H  0.64114915  0.40016803  0.42866170     0.16300
H2593       H  0.62947354  0.31224171  0.44725616     0.16300
C2594       C  0.65211556  0.35661091  0.11152672     0.30200
C2595       C  0.64109048  0.34155401  0.16500810     0.30200
C2596       C  0.63930529  0.36683868  0.13489481    -0.06000
C2597       C  0.63309824  0.32536240  0.11311364    -0.06800
C2598       C  0.67695521  0.36778209  0.12692734    -0.06700
C2599       C  0.63287921  0.35829967  0.16170008    -0.06100
C2600       C  0.62839027  0.31825597  0.14055871    -0.06800
C2601       C  0.67132838  0.35939162  0.15395205    -0.06700
C2602       C  0.62326795  0.37058971  0.17996923    -0.32100
N2603       N  0.62511324  0.38758392  0.16509022     0.14400
C2604       C  0.63581450  0.38626105  0.13818638    -0.32100
H2605       H  0.64095804  0.39912501  0.12244784     0.16300
C2606       C  0.61958768  0.29211475  0.13765016    -0.31100
N2607       N  0.61604154  0.28174575  0.10970949     0.13100
C2608       C  0.62483793  0.30193499  0.09407288    -0.31100
C2609       C  0.69567928  0.36966384  0.16319871    -0.31400
N2610       N  0.71583905  0.38508038  0.14328057     0.13600
H2611       H  0.69856458  0.36580173  0.18262320     0.16300
C2612       C  0.70462826  0.38441183  0.12136080    -0.31400
H2613       H  0.71595714  0.39513340  0.10262403     0.16300
H2614       H  0.62650133  0.30020456  0.07077001     0.16300
H2615       H  0.61630209  0.36803718  0.20245356     0.16300
H2616       H  0.61654035  0.28134390  0.15464942     0.16300
C2617       C  0.64499859  0.31028514  0.28180005    -0.11200
C2618       C  0.62414637  0.30893691  0.27485598     0.15300
C2619       C  0.60669714  0.30947729  0.29662738     0.02200
C2620       C  0.61469611  0.31835448  0.32449489    -0.15600
C2621       C  0.64042702  0.32830072  0.33004075    -0.10400
C2622       C  0.65287464  0.31914007  0.30989215     0.08900
C2623       C  0.62733797  0.31738266  0.24748637     0.10000
S2624       S  0.57691690  0.30335956  0.28861755    -0.24700
H2625       H  0.60177328  0.31947969  0.34157024     0.20200
S2626       S  0.67707535  0.31635202  0.31778530    -0.30400
H2627       H  0.65688129  0.30730960  0.26487721     0.10500
C2628       C  0.64856643  0.34480803  0.24255938     0.03700
C2629       C  0.65180913  0.35240844  0.21592847    -0.12700
C2630       C  0.63381899  0.33341745  0.19478142    -0.08400
C2631       C  0.60915215  0.30828612  0.20287609     0.07200
C2632       C  0.60738191  0.29951267  0.22807731    -0.13500
S2633       S  0.67098055  0.37037951  0.27026496    -0.30400
H2634       H  0.66839481  0.37317880  0.21154322     0.11400
S2635       S  0.57807474  0.28838852  0.18515553    -0.27500
H2636       H  0.58955481  0.27949705  0.23359599     0.08700
H2637       H  0.66989534  0.31472536  0.34738323     0.27100
H2638       H  0.68592374  0.39294472  0.25454942     0.21900
H2639       H  0.58409663  0.31032889  0.17387287     0.27200
H2640       H  0.56821561  0.30700043  0.31725862     0.16000
C2641       C  0.63985927  0.37187155  0.49451143    -0.11200
C2642       C  0.66518653  0.39101749  0.50583484     0.15300
C2643       C  0.68839163  0.40613417  0.48729472     0.02200
C2644       C  0.68607890  0.39873836  0.45770197    -0.15600
C2645       C  0.66126087  0.37585761  0.44654397    -0.10400
C2646       C  0.63729115  0.36445280  0.46526907     0.08900
C2647       C  0.66879643  0.38912059  0.03251254     0.10000
S2648       S  0.72137250  0.43381800  0.50020620    -0.24700
H2649       H  0.70372902  0.41126575  0.44376199     0.20200
S2650       S  0.60231030  0.33915350  0.45571146    -0.30400
H2651       H  0.62173338  0.36040937  0.50866748     0.10500
C2652       C  0.64939524  0.38642471  0.05374618     0.03700
C2653       C  0.64129325  0.37090549  0.07555136    -0.12700
C2654       C  0.65689222  0.36457285  0.08171129    -0.08400
C2655       C  0.67645652  0.36697906  0.06008265     0.07200
C2656       C  0.68221348  0.37945139  0.03585639    -0.13500
S2657       S  0.63305604  0.40046150  0.05154709    -0.30400
H2658       H  0.62259886  0.36391830  0.08797208     0.11400
S2659       S  0.69211450  0.35156963  0.05867710    -0.27500
H2660       H  0.69560892  0.37955609  0.01833442     0.08700
H2661       H  0.60437338  0.33765759  0.42580211     0.27100
H2662       H  0.61909300  0.39487543  0.07892729     0.21900
H2663       H  0.67729363  0.33605700  0.08168310     0.27200
H2664       H  0.71305434  0.43970244  0.02527332     0.16000
C2665       C  0.56500843  0.20675833  0.10848923    -0.11200
C2666       C  0.58161089  0.20002011  0.10892404     0.15300
C2667       C  0.60972951  0.21964474  0.10222020     0.02200
C2668       C  0.62077297  0.24624467  0.09860451    -0.15600
C2669       C  0.60435627  0.25363186  0.10069790    -0.10400
C2670       C  0.57607948  0.23317247  0.10423554     0.08900
C2671       C  0.56943469  0.17366226  0.11936242     0.10000
S2672       S  0.63281597  0.21267645  0.10013290    -0.24700
H2673       H  0.64251644  0.26190116  0.09643711     0.20200
S2674       S  0.55354318  0.24087331  0.10727315    -0.30400
H2675       H  0.54341757  0.19184255  0.11322011     0.10500
C2676       C  0.57440708  0.17301838  0.14673084     0.03700
C2677       C  0.56294980  0.14785586  0.15568848    -0.12700
C2678       C  0.54625932  0.12298639  0.13808937    -0.08400
C2679       C  0.54128126  0.12380130  0.11067887     0.07200
C2680       C  0.55246491  0.14892571  0.10190675    -0.13500
S2681       S  0.59470690  0.20422980  0.17071142    -0.30400
H2682       H  0.56671786  0.14751812  0.17676836     0.11400
S2683       S  0.52231255  0.09380468  0.08509557    -0.27500
H2684       H  0.54857700  0.14927942  0.08087927     0.08700
H2685       H  0.57018088  0.26223741  0.08982684     0.27100
H2686       H  0.59227725  0.19217735  0.19389643     0.21900
H2687       H  0.53338907  0.08238461  0.09092257     0.27200
H2688       H  0.61372546  0.18411396  0.09442874     0.16000
C2689       C  0.83531381  0.41827404  0.14249076    -0.11200
C2690       C  0.82822634  0.43478817  0.14296816     0.15300
C2691       C  0.84893429  0.46341396  0.14423918     0.02200
C2692       C  0.87578949  0.47487105  0.14662438    -0.15600
C2693       C  0.88286568  0.45841655  0.14703524    -0.10400
C2694       C  0.86223159  0.42958878  0.14374766     0.08900
C2695       C  0.79909700  0.42163294  0.14279823     0.10000
S2696       S  0.84236939  0.48646262  0.14318746    -0.24700
H2697       H  0.88801005  0.99790177  0.16095997     0.20200
S2698       S  0.86880524  0.40590768  0.14017183    -0.30400
H2699       H  0.81968501  0.39627673  0.14098086     0.10500
C2700       C  0.78406604  0.40429647  0.11865439     0.03700
C2701       C  0.75674325  0.39254872  0.11936180    -0.12700
C2702       C  0.74400055  0.39784747  0.14359736    -0.08400
C2703       C  0.75921927  0.41561928  0.16751090     0.07200
C2704       C  0.78632966  0.42686084  0.16708783    -0.13500
S2705       S  0.79990296  0.39793318  0.08647403    -0.30400
H2706       H  0.74510758  0.37909858  0.10097748     0.11400
S2707       S  0.74565979  0.42601917  0.19834139    -0.27500
H2708       H  0.79780056  0.44036496  0.18558712     0.08700
H2709       H  0.89372069  0.42217713  0.12417897     0.27100
H2710       H  0.77671315  0.37975988  0.07072409     0.21900
H2711       H  0.72876616  0.42533853  0.18277769     0.27200
H2712       H  0.82007118  0.46809780  0.12617451     0.16000
C2713       C  0.61956860  0.44216150  0.16948667    -0.11200
C2714       C  0.59157449  0.42744102  0.17506074     0.15300
C2715       C  0.57549849  0.40038726  0.18208802     0.02200
C2716       C  0.58724757  0.38801469  0.18072095    -0.15600
C2717       C  0.61501165  0.40245643  0.17388126    -0.10400
C2718       C  0.63143858  0.43027524  0.16994730     0.08900
C2719       C  0.57961356  0.44041435  0.17263499     0.10000
S2720       S  0.53991598  0.38055287  0.19273310    -0.24700
H2721       H  0.57453134  0.36667922  0.18393121     0.20200
S2722       S  0.66771504  0.45138707  0.16531427    -0.30400
H2723       H  0.63228492  0.46303431  0.16457547     0.10500
C2724       C  0.58765361  0.46496357  0.18969709     0.03700
C2725       C  0.57480446  0.47557011  0.18775296    -0.12700
C2726       C  0.55348549  0.46195999  0.16975755    -0.08400
C2727       C  0.54561922  0.43755985  0.15249801     0.07200
C2728       C  0.55923583  0.42751809  0.15349140    -0.13500
S2729       S  0.61277857  0.48187196  0.21566431    -0.30400
H2730       H  0.58072533  0.49416881  0.20120178     0.11400
S2731       S  0.02015071  0.42248748  0.13056789    -0.27500
H2732       H  0.55299193  0.40871870  0.14023647     0.08700
H2733       H  0.66955702  0.43558467  0.17949650     0.27100
H2734       H  0.62097652  0.01176426  0.22075459     0.21900
H2735       H  0.00343771  0.42556935  0.15117284     0.27200
H2736       H  0.54140376  0.40295737  0.20660384     0.16000
C2737       C  0.56128877  0.21248412  0.40111507    -0.11200
C2738       C  0.57276211  0.20475593  0.41411155     0.15300
C2739       C  0.59741030  0.22537089  0.42738191     0.02200
C2740       C  0.61074198  0.25296321  0.42570880    -0.15600
C2741       C  0.59977034  0.26054310  0.41156140    -0.10400
C2742       C  0.57419436  0.24000290  0.40020387     0.08900
C2743       C  0.55990266  0.17528860  0.41115252     0.10000
S2744       S  0.61317642  0.21777086  0.44612290    -0.24700
H2745       H  0.63028035  0.26859492  0.43452794     0.20200
S2746       S  0.55712564  0.24764697  0.38394861    -0.30400
H2747       H  0.54237320  0.19691819  0.39101999     0.10500
C2748       C  0.53337995  0.15556517  0.42271370     0.03700
C2749       C  0.52260117  0.12814857  0.41973104    -0.12700
C2750       C  0.53793615  0.12012573  0.40599741    -0.08400
C2751       C  0.56389969  0.13958602  0.39326637     0.07200
C2752       C  0.57454396  0.16684799  0.39590932    -0.13500
S2753       S  0.51391848  0.16541953  0.44311967    -0.30400
H2754       H  0.50275856  0.11315436  0.42964287     0.11400
S2755       S  0.58437304  0.13084889  0.37346690    -0.27500
H2756       H  0.59458162  0.18172632  0.38625600     0.08700
H2757       H  0.56879606  0.27335466  0.40013626     0.27100
H2758       H  0.98687517  0.13698724  0.44690852     0.21900
H2759       H  0.56264765  0.10346828  0.36474799     0.27200
H2760       H  0.58900656  0.19325617  0.45515595     0.16000
C2761       C  0.83409565  0.42220650  0.38674036    -0.11200
C2762       C  0.83376415  0.43452794  0.36608512     0.15300
C2763       C  0.85850265  0.45682875  0.35418492     0.02200
C2764       C  0.88294925  0.46655528  0.36362554    -0.15600
C2765       C  0.88345409  0.45442323  0.38474629    -0.10400
C2766       C  0.85830480  0.43179464  0.39640857     0.08900
C2767       C  0.80699009  0.42502347  0.36025782     0.10000
S2768       S  0.86008635  0.47364169  0.32699505    -0.24700
H2769       H  0.90173549  0.48383331  0.35438252     0.20200
S2770       S  0.85582441  0.41547849  0.42494653    -0.30400
H2771       H  0.81497547  0.40533073  0.39600746     0.10500
C2772       C  0.78735413  0.39825601  0.34731212     0.03700
C2773       C  0.76038158  0.38773325  0.34852010    -0.12700
C2774       C  0.75270515  0.40345852  0.36253431    -0.08400
C2775       C  0.77281712  0.43098285  0.37317454     0.07200
C2776       C  0.79963214  0.44139167  0.37222115    -0.13500
S2777       S  0.79652329  0.37718108  0.33039235    -0.30400
H2778       H  0.74492350  0.36672340  0.34013691     0.11400
S2779       S  0.76517255  0.45346097  0.38887454    -0.27500
H2780       H  0.81463947  0.46200574  0.38204884     0.08700
H2781       H  0.82830640  0.89964249  0.43594207     0.27100
H2782       H  0.77065346  0.35402589  0.32192142     0.21900
H2783       H  0.74242238  0.44000992  0.37316055     0.27200
H2784       H  0.83596826  0.45049329  0.31479866     0.16000
C2785       C  0.57942413  0.39950942  0.38636256    -0.11200
C2786       C  0.59572352  0.42795648  0.39364679     0.15300
C2787       C  0.62352190  0.44309082  0.39671943     0.02200
C2788       C  0.63421930  0.42946940  0.39270745    -0.15600
C2789       C  0.61788831  0.40103214  0.38569258    -0.10400
C2790       C  0.59010037  0.38588594  0.38278676     0.08900
C2791       C  0.58267940  0.44080222  0.39990716     0.10000
S2792       S  0.64626153  0.47961532  0.40645256    -0.24700
H2793       H  0.65544027  0.44103810  0.39550321     0.20200
S2794       S  0.56695575  0.34910010  0.37667577    -0.30400
H2795       H  0.55797576  0.38771802  0.38464162     0.10500
C2796       C  0.57172185  0.44215777  0.37811113     0.03700
C2797       C  0.55854174  0.45343533  0.38525596    -0.12700
C2798       C  0.55618271  0.46376608  0.41384802    -0.08400
C2799       C  0.56822464  0.46317969  0.43545097     0.07200
C2800       C  0.58076025  0.45129380  0.42831337    -0.13500
S2801       S  0.57498438  0.42998127  0.34104236    -0.30400
H2802       H  0.54979738  0.45390933  0.36836575     0.11400
S2803       S  0.56965959  0.47825922  0.47221959    -0.27500
H2804       H  0.58946948  0.45052695  0.44504440     0.08700
H2805       H  0.58019667  0.34511155  0.39247215     0.27100
H2806       H  0.55940957  0.43394730  0.32964697     0.21900
H2807       H  0.57906932  0.50297599  0.46409649     0.27200
H2808       H  0.63240988  0.48516546  0.39420058     0.16000
C2809       C  0.87920605  0.09309938  0.20429113    -0.11200
C2810       C  0.89441500  0.09738708  0.22558534     0.15300
C2811       C  0.89748254  0.11461974  0.25123815     0.02200
C2812       C  0.88597166  0.12744624  0.25470916    -0.15600
C2813       C  0.87168744  0.12408774  0.23300748    -0.10400
C2814       C  0.86741536  0.10576521  0.20795674     0.08900
C2815       C  0.90775095  0.08464830  0.22008946     0.10000
S2816       S  0.91680628  0.12208708  0.27995527    -0.24700
H2817       H  0.88932334  0.14130856  0.27405697     0.20200
S2818       S  0.84602889  0.09660328  0.18071184    -0.30400
H2819       H  0.87626175  0.07953375  0.18477949     0.10500
C2820       C  0.90014601  0.06425985  0.23614844     0.03700
C2821       C  0.91511086  0.05485259  0.23186064    -0.12700
C2822       C  0.93731949  0.06495386  0.21138675    -0.08400
C2823       C  0.94450089  0.08505283  0.19499167     0.07200
C2824       C  0.92958451  0.09438675  0.19931875    -0.13500
S2825       S  0.87080225  0.04953753  0.26138534    -0.30400
H2826       H  0.90909717  0.03906057  0.24401319     0.11400
S2827       S  0.97337463  0.10077044  0.16927168    -0.27500
H2828       H  0.93565135  0.11013527  0.18701560     0.08700
H2829       H  0.82923528  0.10083465  0.19947281     0.27100
H2830       H  0.87311411  0.03210834  0.27135891     0.21900
H2831       H  0.98979648  0.10155822  0.18575648     0.27200
H2832       H  0.93633907  0.12154482  0.26210435     0.16000
C2833       C  0.93394292  0.32768381  0.26970262    -0.11200
C2834       C  0.91766557  0.33543733  0.27513128     0.15300
C2835       C  0.89008979  0.31626781  0.28405468     0.02200
C2836       C  0.87885457  0.28912272  0.28471016    -0.15600
C2837       C  0.89471991  0.28087075  0.27685773    -0.10400
C2838       C  0.92276981  0.30066615  0.27061735     0.08900
C2839       C  0.92858480  0.36143808  0.26559787     0.10000
S2840       S  0.86795076  0.32483376  0.29258821    -0.24700
H2841       H  0.85729688  0.27395031  0.28934343     0.20200
S2842       S  0.94483855  0.29205138  0.26147204    -0.30400
H2843       H  0.95512959  0.34234765  0.26289093     0.10500
C2844       C  0.94620087  0.38689775  0.28177846     0.03700
C2845       C  0.95681207  0.41094932  0.27081249    -0.12700
C2846       C  0.95006581  0.40989705  0.24376197    -0.08400
C2847       C  0.93259690  0.38408423  0.22750333     0.07200
C2848       C  0.92181315  0.36032015  0.23878141    -0.13500
S2849       S  0.95457568  0.38881255  0.31670166    -0.30400
H2850       H  0.97019178  0.43051006  0.28350583     0.11400
S2851       S  0.92449914  0.37984107  0.19143157    -0.27500
H2852       H  0.90858830  0.34068645  0.22610691     0.08700
H2853       H  0.92820901  0.26804981  0.27503292     0.27100
H2854       H  0.95380044  0.41019493  0.32837388     0.21900
H2855       H  0.95079360  0.40218882  0.18255215     0.27200
H2856       H  0.88817195  0.35285395  0.30079775     0.16000
C2857       C  0.65551011  0.07893355  0.19208993    -0.11200
C2858       C  0.66525600  0.08259962  0.21812250     0.15300
C2859       C  0.64699184  0.07345935  0.24289866     0.02200
C2860       C  0.62012385  0.06255957  0.24150718    -0.15600
C2861       C  0.61068789  0.05991006  0.21564905    -0.10400
C2862       C  0.62849824  0.06710153  0.19040580     0.08900
C2863       C  0.69483578  0.09775554  0.21916295     0.10000
S2864       S  0.65682942  0.07520988  0.27688620    -0.24700
H2865       H  0.60666659  0.05660631  0.26087760     0.20200
S2866       S  0.61785381  0.06088149  0.15507025    -0.30400
H2867       H  0.66912696  0.08542377  0.17284545     0.10500
C2868       C  0.70798517  0.08753664  0.20347156     0.03700
C2869       C  0.73595257  0.10277064  0.20539118    -0.12700
C2870       C  0.75110850  0.12820094  0.22231828    -0.08400
C2871       C  0.73815581  0.13891337  0.23676941     0.07200
C2872       C  0.71029573  0.12355264  0.23540020    -0.13500
S2873       S  0.68895448  0.05450946  0.18218958    -0.30400
H2874       H  0.74591714  0.09454560  0.19454460     0.11400
S2875       S  0.75640491  0.17229011  0.25720625    -0.27500
H2876       H  0.70059734  0.13192830  0.24686144     0.08700
H2877       H  0.59167181  0.03649326  0.16016910     0.27100
H2878       H  0.71125645  0.05606234  0.16967381     0.21900
H2879       H  0.78080090  0.18390500  0.24006955     0.27200
H2880       H  0.67592042  0.07154289  0.26485977     0.16000
C2881       C  0.86654840  0.07747201  0.48426108    -0.11200
C2882       C  0.88956266  0.08721008  0.46533653     0.15300
C2883       C  0.89799717  0.10666764  0.44723140     0.02200
C2884       C  0.88414479  0.11704574  0.44969057    -0.15600
C2885       C  0.86161820  0.10788642  0.46936748    -0.10400
C2886       C  0.85241466  0.08733948  0.48622639     0.08900
C2887       C  0.90401032  0.07637429  0.46497128     0.10000
S2888       S  0.92650554  0.11935967  0.42109061    -0.24700
H2889       H  0.89137981  0.13288519  0.43682001     0.20200
S2890       S  0.82472003  0.07472865  0.01361212    -0.30400
H2891       H  0.85963565  0.06215154  0.49776422     0.10500
C2892       C  0.92879713  0.09230252  0.97811791     0.03700
C2893       C  0.94205267  0.08089435  0.47584965    -0.12700
C2894       C  0.93038144  0.05429242  0.46245322    -0.08400
C2895       C  0.90460339  0.03818472  0.45169112     0.07200
C2896       C  0.89191349  0.04945586  0.45269434    -0.13500
S2897       S  0.94315590  0.12581004  0.99712455    -0.30400
H2898       H  0.96068211  0.09272855  0.98667135     0.11400
S2899       S  0.88655904  0.00289090  0.43703104    -0.27500
H2900       H  0.87235550  0.03710030  0.44391919     0.08700
H2901       H  0.80997969  0.07765039  0.99890502     0.27100
H2902       H  0.96309276  0.12902564  0.00985810     0.21900
H2903       H  0.89685550  0.99711080  0.45493877     0.27200
H2904       H  0.92380118  0.09545665  0.41537456     0.16000
C2905       C  0.91630678  0.29993047  0.98244012    -0.11200
C2906       C  0.90148649  0.30938021  0.48330561     0.15300
C2907       C  0.87727574  0.28799858  0.46961956     0.02200
C2908       C  0.86500947  0.26071859  0.47146733    -0.15600
C2909       C  0.87703770  0.25394681  0.48519830    -0.10400
C2910       C  0.90366746  0.27254590  0.98433960     0.08900
C2911       C  0.91521417  0.33882351  0.48298146     0.10000
S2912       S  0.86146712  0.29397397  0.44858851    -0.24700
H2913       H  0.84595765  0.24457588  0.46187357     0.20200
S2914       S  0.92397524  0.26534641  0.99343623    -0.30400
H2915       H  0.93717643  0.31566832  0.98768680     0.10500
C2916       C  0.90308246  0.35069891  0.49618505     0.03700
C2917       C  0.91610233  0.37802238  0.49302714    -0.12700
C2918       C  0.94153003  0.39408977  0.47793014    -0.08400
C2919       C  0.95429792  0.38257347  0.46634232     0.07200
C2920       C  0.94108350  0.35523973  0.46897990    -0.13500
S2921       S  0.87147785  0.33136153  0.51773064    -0.30400
H2922       H  0.90647142  0.38694530  0.50225738     0.11400
S2923       S  0.98685564  0.40121979  0.44667960    -0.27500
H2924       H  0.95071924  0.34640420  0.45918303     0.08700
H2925       H  0.91085190  0.23999685  0.97613535     0.27100
H2926       H  0.86830460  0.35148286  0.52374304     0.21900
H2927       H  0.98170765  0.41349243  0.43101236     0.27200
H2928       H  0.88535190  0.31871073  0.43965960     0.16000
C2929       C  0.64849594  0.08351385  0.48678571    -0.11200
C2930       C  0.64878147  0.07973673  0.51470330     0.15300
C2931       C  0.62414583  0.06444934  0.03214379     0.02200
C2932       C  0.60050028  0.05440283  0.02044757    -0.15600
C2933       C  0.59982044  0.05813746  0.49259376    -0.10400
C2934       C  0.62449558  0.07274475  0.47548139     0.08900
C2935       C  0.67523690  0.09107944  0.52426770     0.10000
S2936       S  0.62048863  0.05379256  0.06619581    -0.24700
H2937       H  0.58123593  0.04086422  0.03222930     0.20200
S2938       S  0.62676997  0.07722402  0.43850854    -0.30400
H2939       H  0.66719701  0.09445150  0.47332311     0.10500
C2940       C  0.68149991  0.07418444  0.52635674     0.03700
C2941       C  0.70845596  0.08601284  0.52911030    -0.12700
C2942       C  0.72930511  0.11433906  0.52979208    -0.08400
C2943       C  0.72226194  0.13099979  0.03604918     0.07200
C2944       C  0.69573528  0.12011780  0.03323499    -0.13500
S2945       S  0.65592062  0.03745727  0.52220517    -0.30400
H2946       H  0.71378222  0.07304791  0.52807112     0.11400
S2947       S  0.74775757  0.16759473  0.04039972    -0.27500
H2948       H  0.69130839  0.13388204  0.03456414     0.08700
H2949       H  0.60216478  0.05134806  0.43141583     0.27100
H2950       H  0.67160209  0.03175637  0.52981152     0.21900
H2951       H  0.76282738  0.16802789  0.05851450     0.27200
H2952       H  0.64668729  0.07591272  0.07459294     0.16000
C2953       C  0.78991463  0.15508310  0.40554932    -0.11200
C2954       C  0.79173156  0.13800330  0.38391764     0.15300
C2955       C  0.79294054  0.11885937  0.39124553     0.02200
C2956       C  0.79889078  0.12169411  0.41906314    -0.15600
C2957       C  0.80315367  0.14306498  0.43949650    -0.10400
C2958       C  0.79436972  0.15710458  0.43368308     0.08900
C2959       C  0.80242578  0.14766140  0.35566956     0.10000
S2960       S  0.78982481  0.09249965  0.36510094    -0.24700
H2961       H  0.80027284  0.10723931  0.42442111     0.20200
S2962       S  0.78935733  0.17917576  0.45889248    -0.30400
H2963       H  0.78785507  0.16913437  0.40007553     0.10500
C2964       C  0.78948478  0.15231064  0.34040085     0.03700
C2965       C  0.80310947  0.16591437  0.31605701    -0.12700
C2966       C  0.82782542  0.17193128  0.30496097    -0.08400
C2967       C  0.84249934  0.17143058  0.32299594     0.07200
C2968       C  0.82922614  0.15837691  0.34758672    -0.13500
S2969       S  0.75548177  0.14016044  0.35118221    -0.30400
H2970       H  0.79410909  0.17119411  0.30523499     0.11400
S2971       S  0.87828590  0.18850908  0.31771878    -0.27500
H2972       H  0.84027793  0.15759923  0.36129365     0.08700
H2973       H  0.79359022  0.17669858  0.48523561     0.27100
H2974       H  0.75402353  0.15200352  0.33069280     0.21900
H2975       H  0.88530713  0.20898201  0.30266253     0.27200
H2976       H  0.77765722  0.09398149  0.34483225     0.16000
C2977       C  0.88122526  0.19925137  0.07832823    -0.11200
C2978       C  0.86349313  0.18531447  0.10121602     0.15300
C2979       C  0.83694677  0.16126658  0.09653600     0.02200
C2980       C  0.82739727  0.15421134  0.06971122    -0.15600
C2981       C  0.84387540  0.17047881  0.04736133    -0.10400
C2982       C  0.87222223  0.19093604  0.05083934     0.08900
C2983       C  0.87127225  0.19775251  0.13029421     0.10000
S2984       S  0.81400067  0.13947512  0.12421287    -0.24700
H2985       H  0.80715187  0.13544018  0.06634374     0.20200
S2986       S  0.89893582  0.20682706  0.02257987    -0.30400
H2987       H  0.90212950  0.21673865  0.08198502     0.10500
C2988       C  0.88736916  0.19581143  0.14352270     0.03700
C2989       C  0.88465345  0.19712696  0.17341485    -0.12700
C2990       C  0.86459902  0.19801791  0.18920084    -0.08400
C2991       C  0.85392708  0.20701673  0.17612779     0.07200
C2992       C  0.85740675  0.20650500  0.14646423    -0.13500
S2993       S  0.90851999  0.18838958  0.12247691    -0.30400
H2994       H  0.89708177  0.19596333  0.18406716     0.11400
S2995       S  0.83409733  0.21748757  0.19376800    -0.27500
H2996       H  0.84667726  0.20991283  0.13563705     0.08700
H2997       H  0.88523411  0.18903219  0.99839688     0.27100
H2998       H  0.92191678  0.19256632  0.14569759     0.21900
H2999       H  0.83284401  0.21502369  0.22256504     0.27200
H3000       H  0.83399862  0.14583313  0.14010860     0.16000
C3001       C  0.81240509  0.14681120  0.96660841     0.30200
C3002       C  0.83159038  0.16225351  0.52107549     0.30200
C3003       C  0.82757369  0.13657883  0.97102424    -0.06000
C3004       C  0.83359902  0.17794915  0.97489258    -0.06800
C3005       C  0.79118030  0.13678765  0.99193758    -0.06700
C3006       C  0.83739535  0.14503798  0.49969173    -0.06100
C3007       C  0.84328004  0.18664267  0.50521175    -0.06800
C3008       C  0.80066280  0.14519904  0.51954347    -0.06700
C3009       C  0.84993042  0.13461582  0.50131399    -0.32100
N3010       N  0.84911547  0.12067114  0.97453491     0.14400
C3011       C  0.83645988  0.12223146  0.95613053    -0.32100
H3012       H  0.83425557  0.11370144  0.93373588     0.16300
C3013       C  0.85925273  0.21474881  0.51135113    -0.31100
N3014       N  0.86319352  0.22551934  0.48728598     0.13100
C3015       C  0.84635622  0.20156632  0.96248009    -0.31100
C3016       C  0.77751301  0.13662672  0.53770785    -0.31400
N3017       N  0.75638926  0.12410124  0.52114861     0.13600
H3018       H  0.77632969  0.14056885  0.56097196     0.16300
C3019       C  0.76388600  0.12286434  0.99445078    -0.31400
H3020       H  0.75097466  0.11441376  0.97695320     0.16300
H3021       H  0.84406482  0.20268363  0.94099731     0.16300
H3022       H  0.85826528  0.13632247  0.52018449     0.16300
H3023       H  0.86696191  0.22643395  0.53200981     0.16300
C3024       C  0.85000232  0.18450627  0.72143798     0.30200
C3025       C  0.83242301  0.17199640  0.77638895     0.30200
C3026       C  0.85693486  0.16827649  0.73129351    -0.06000
C3027       C  0.86077014  0.20862685  0.74491518    -0.06800
C3028       C  0.81895464  0.16542071  0.72760770    -0.06700
C3029       C  0.84783014  0.16181749  0.75951739    -0.06100
C3030       C  0.85126670  0.20256312  0.77282431    -0.06800
C3031       C  0.81006302  0.15891963  0.75564326    -0.06700
C3032       C  0.85073492  0.14290778  0.76255921    -0.32100
N3033       N  0.86193576  0.13828862  0.73750831     0.14400
C3034       C  0.86495400  0.15293732  0.71810482    -0.32100
H3035       H  0.87182143  0.15167872  0.69578988     0.16300
C3036       C  0.86095626  0.22713769  0.78989500    -0.31100
N3037       N  0.87673175  0.24761159  0.77266720     0.13100
C3038       C  0.87678858  0.23642782  0.74524389    -0.31100
C3039       C  0.78211886  0.14047710  0.75668805    -0.31400
N3040       N  0.77379961  0.13706679  0.73085981     0.13600
H3041       H  0.76836949  0.13022856  0.77484255     0.16300
C3042       C  0.79606034  0.15142306  0.71249688    -0.31400
H3043       H  0.79558847  0.15223676  0.69014769     0.16300
H3044       H  0.88649677  0.24762083  0.72663676     0.16300
H3045       H  0.84449434  0.13258747  0.78134902     0.16300
H3046       H  0.85642543  0.22982392  0.81280892     0.16300
O3047       O  0.53082329  0.47351055  0.89696499    -0.75100
O3048       O  0.52695405  0.47008171  0.94510243    -0.54100
C3049       C  0.53447604  0.46693377  0.91845355     0.78600
O3050       O  0.54272437  0.09465372  0.92636380    -0.59700
O3051       O  0.00400318  0.07211108  0.90226035    -0.52800
C3052       C  0.52775967  0.09485607  0.91231471     0.70600
O3053       O  0.57533401  0.06510801  0.96848267    -0.74300
O3054       O  0.55473609  0.02590700  0.98797893    -0.54900
C3055       C  0.57550480  0.05024700  0.98276410     0.76600
O3056       O  0.00505343  0.00309631  0.83880337    -0.59400
O3057       O  0.98333295  0.02103056  0.85068260    -0.52600
C3058       C  0.99440666  0.01264398  0.83107725     0.73200
Zr3059     Zr  0.51101646  0.49306977  0.88639224     2.54700
O3060       O  0.55604561  0.02051092  0.85913614    -0.80000
O3061       O  0.99391950  0.45275260  0.85394630    -0.93400
Zr3062     Zr  0.54341523  0.06223218  0.94357372     2.64700
O3063       O  0.58405262  0.08358557  0.91098904    -0.98400
O3064       O  0.56586814  0.10431647  0.97661584    -0.80400
O3065       O  0.53479989  0.02012956  0.93160692    -0.83800
O3066       O  0.52140028  0.03831548  0.89938991    -2.18500
O3067       O  0.91276942  0.45323407  0.90813425    -0.67200
O3068       O  0.92893279  0.99028993  0.89228931    -0.51800
C3069       C  0.91226066  0.46785364  0.89405420     0.71600
O3070       O  0.98131123  0.01678943  0.53844445    -0.60100
O3071       O  0.50066096  0.49711210  0.52789425    -0.52100
C3072       C  0.98953233  0.50589037  0.54815212     0.73400
O3073       O  0.95165930  0.04100289  0.98001784    -0.71500
O3074       O  0.95251208  0.04007495  0.93121923    -0.50200
C3075       C  0.94617897  0.04487070  0.95772242     0.74800
O3076       O  0.94030350  0.42221935  0.95383688    -0.66800
O3077       O  0.97777234  0.44189168  0.97742989    -0.54000
C3078       C  0.95463491  0.42097205  0.96772490     0.73100
Zr3079     Zr  0.94366203  0.45684588  0.93502481     2.77500
O3080       O  0.90237474  0.43600185  0.96651945    -0.97600
O3081       O  0.92573336  0.41565751  0.90107739    -0.78400
Zr3082     Zr  0.97272112  0.02268196  0.99061122     2.70100
O3083       O  0.92661963  0.49493294  0.51799206    -0.79600
O3084       O  0.99545771  0.06768121  0.52017137    -0.98700
Zr3085     Zr  0.50536567  0.48909899  0.97207889     2.21500
Zr3086     Zr  0.97603000  0.02325170  0.90575017     2.11100
O3087       O  0.95178673  0.49886574  0.94750665    -2.47400
O3088       O  0.96427077  0.48008933  0.97991612    -0.79400
O3089       O  0.96934412  0.48220148  0.89467664    -0.71600
O3090       O  0.51769473  0.03795313  0.98434546    -2.32600
O3091       O  0.98675025  0.46871408  0.92682147    -2.28800
O3092       O  0.99855670  0.04770727  0.95000717    -0.73400
H3093       H  0.53149922  0.04946002  0.88377613     0.78600
H3094       H  0.52544703  0.04482808  0.50079402     0.79700
H3095       H  0.93448102  0.49483728  0.94990005     0.81900
H3096       H  0.98413110  0.45192571  0.92189853     0.79500
H3097       H  0.55653860  0.09848963  0.99576102     0.42600
H3098       H  0.50293844  0.08043817  0.50832549     0.41500
H3099       H  0.92455085  0.50872730  0.52758687     0.41200
H3100       H  0.89457055  0.44434421  0.96345377     0.39100
H3101       H  0.92278476  0.41934466  0.88364729     0.42300
H3102       H  0.97614643  0.44655011  0.85002597     0.37100
H3103       H  0.55432479  0.00639304  0.84408838     0.43200
H3104       H  0.57822335  0.08182562  0.89223672     0.39600
H3105       H  0.88996337  0.41682982  0.95763727     0.44500
H3106       H  0.98945244  0.43930997  0.86592798     0.43200
H3107       H  0.59507472  0.10333913  0.91792592     0.43400
H3108       H  0.98088518  0.06894407  0.52685130     0.43700
O3109       O  0.53285257  0.47755799  0.65143837    -0.75100
O3110       O  0.53193963  0.48013912  0.70054751    -0.54100
C3111       C  0.53806424  0.47428129  0.67448421     0.78600
O3112       O  0.54510243  0.09593889  0.66408632    -0.59700
O3113       O  0.00640368  0.07125652  0.64106442    -0.52800
C3114       C  0.53037848  0.09517815  0.64840348     0.70600
O3115       O  0.57812836  0.06301724  0.69868129    -0.74300
O3116       O  0.55949037  0.02932071  0.72684403    -0.54900
C3117       C  0.57982934  0.04941075  0.71313187     0.76600
O3118       O  0.50065490  0.99930352  0.58986642    -0.59400
O3119       O  0.98172008  0.01720869  0.59942632    -0.52600
C3120       C  0.99201657  0.00755053  0.58042739     0.73200
Zr3121     Zr  0.51026202  0.49352891  0.63814823     2.54700
O3122       O  0.54971584  0.01231988  0.60775273    -0.80000
O3123       O  0.98597598  0.44772297  0.61168478    -0.93400
Zr3124     Zr  0.54414477  0.06508133  0.68801664     2.64700
O3125       O  0.58599331  0.09133464  0.65777926    -0.98400
O3126       O  0.56432235  0.10421163  0.72508721    -0.80400
O3127       O  0.53305043  0.02167783  0.67950981    -0.83800
O3128       O  0.51903149  0.03733053  0.64644806    -2.18500
O3129       O  0.90950116  0.45560649  0.66949329    -0.67200
O3130       O  0.92856303  0.99320709  0.64613584    -0.51800
C3131       C  0.90753529  0.46883046  0.65475209     0.71600
O3132       O  0.98428835  0.02311292  0.78916092    -0.60100
O3133       O  0.50729148  0.50664786  0.77930572    -0.52100
C3134       C  0.99610684  0.51456526  0.79868367     0.73400
O3135       O  0.95801064  0.04965650  0.72796141    -0.71500
O3136       O  0.95744505  0.04645299  0.67897025    -0.50200
C3137       C  0.95261518  0.05327805  0.70535334     0.74800
O3138       O  0.94237296  0.43075110  0.71733619    -0.66800
O3139       O  0.98235767  0.45313258  0.73698118    -0.54000
C3140       C  0.95806794  0.43153625  0.73140257     0.73100
Zr3141     Zr  0.94379774  0.46105319  0.69201296     2.77500
O3142       O  0.90369894  0.44233378  0.72514235    -0.97600
O3143       O  0.92354610  0.41844339  0.66019203    -0.78400
Zr3144     Zr  0.97837713  0.03152561  0.74123556     2.70100
O3145       O  0.93329127  0.50596944  0.76996796    -0.79600
O3146       O  0.00275388  0.07650431  0.76911254    -0.98700
Zr3147     Zr  0.51215593  0.50085344  0.72427994     2.21500
Zr3148     Zr  0.97681699  0.02476171  0.65478290     2.11100
O3149       O  0.95253558  0.50340951  0.70079048    -2.47400
O3150       O  0.96809142  0.48822913  0.73401928    -0.79400
O3151       O  0.96651591  0.48190296  0.64850585    -0.71600
O3152       O  0.52208478  0.04493921  0.73216992    -2.32600
O3153       O  0.98642645  0.47149123  0.68191894    -2.28800
O3154       O  0.00164141  0.05266236  0.69726598    -0.73400
H3155       H  0.52859142  0.04683487  0.62957644     0.78600
H3156       H  0.53350726  0.05589980  0.74809057     0.79700
H3157       H  0.93546389  0.49992518  0.70429724     0.81900
H3158       H  0.98358862  0.45458590  0.67923784     0.79500
H3159       H  0.57952422  0.10638770  0.73097053     0.42600
H3160       H  0.50328648  0.09077791  0.76164230     0.41500
H3161       H  0.93433416  0.52004718  0.78444039     0.41200
H3162       H  0.89135170  0.42256107  0.71828696     0.39100
H3163       H  0.93213617  0.42410073  0.64080631     0.42300
H3164       H  0.97870259  0.43529373  0.62642960     0.37100
H3165       H  0.55656258  0.03064158  0.60485896     0.43200
H3166       H  0.58028333  0.08583229  0.63786402     0.39600
H3167       H  0.90944010  0.44343812  0.74365635     0.44500
H3168       H  0.00047919  0.44773714  0.60057387     0.43200
H3169       H  0.59314808  0.11053760  0.66236786     0.43400
H3170       H  0.01447275  0.07737081  0.78079375     0.43700
C3171       C  0.65044315  0.34182171  0.85746326     0.30200
C3172       C  0.66104362  0.36575473  0.91270853     0.30200
C3173       C  0.64175151  0.35969693  0.86872946    -0.06000
C3174       C  0.63825191  0.32271570  0.88039843    -0.06800
C3175       C  0.68108492  0.36271852  0.86326236    -0.06700
C3176       C  0.64749941  0.37187189  0.89670622    -0.06100
C3177       C  0.64413247  0.33459322  0.90832299    -0.06800
C3178       C  0.68624291  0.37433918  0.89213243    -0.06700
C3179       C  0.63804201  0.38636772  0.90369523    -0.32100
N3180       N  0.62610140  0.38294752  0.88078221     0.14400
C3181       C  0.62860749  0.36713484  0.85900650    -0.32100
H3182       H  0.62096033  0.36114825  0.83798487     0.16300
C3183       C  0.63213710  0.31367263  0.92507425    -0.31100
N3184       N  0.61820654  0.28962885  0.90768818     0.13100
C3185       C  0.62214922  0.29495994  0.88032082    -0.31100
C3186       C  0.71358949  0.38997227  0.89421669    -0.31400
N3187       N  0.72582948  0.39094924  0.86754207     0.13600
H3188       H  0.72408151  0.39900536  0.91375747     0.16300
C3189       C  0.70622258  0.37438314  0.84840287    -0.31400
H3190       H  0.71011413  0.37129254  0.82542543     0.16300
H3191       H  0.61389313  0.27965215  0.86173774     0.16300
H3192       H  0.63881847  0.39770590  0.92433392     0.16300
H3193       H  0.63279549  0.31564886  0.94812768     0.16300
C3194       C  0.64934647  0.35565226  0.61397069     0.30200
C3195       C  0.63766880  0.34157527  0.66812946     0.30200
C3196       C  0.63884820  0.36830643  0.63717406    -0.06000
C3197       C  0.62832193  0.32459926  0.61650684    -0.06800
C3198       C  0.67367085  0.36505903  0.62898915    -0.06700
C3199       C  0.63206505  0.36032889  0.66430520    -0.06100
C3200       C  0.62306073  0.31786399  0.64427341    -0.06800
C3201       C  0.66774917  0.35722993  0.65644540    -0.06700
C3202       C  0.62364191  0.37394730  0.68189308    -0.32100
N3203       N  0.62647402  0.39108750  0.66623157     0.14400
C3204       C  0.63659364  0.38849215  0.63943178    -0.32100
H3205       H  0.64165340  0.40057631  0.62284560     0.16300
C3206       C  0.61194720  0.29094234  0.64211447    -0.31100
N3207       N  0.60816286  0.28016260  0.61429526     0.13100
C3208       C  0.61888060  0.30058538  0.59805088    -0.31100
C3209       C  0.69203462  0.36744984  0.66600314    -0.31400
N3210       N  0.71238705  0.38233761  0.64589693     0.13600
H3211       H  0.69476708  0.36420927  0.68597008     0.16300
C3212       C  0.70131504  0.38129051  0.62354230    -0.31400
H3213       H  0.71278569  0.39196231  0.60480147     0.16300
H3214       H  0.62124143  0.29858429  0.57473961     0.16300
H3215       H  0.61616379  0.37167130  0.70428721     0.16300
H3216       H  0.60810705  0.28006352  0.65944150     0.16300
C3217       C  0.64190156  0.30649593  0.78027690    -0.11200
C3218       C  0.62021463  0.30477856  0.77523415     0.15300
C3219       C  0.60303604  0.30400580  0.79847898     0.02200
C3220       C  0.61236071  0.31278091  0.82576468    -0.15600
C3221       C  0.63917406  0.32445166  0.82922859    -0.10400
C3222       C  0.65152513  0.31612574  0.80772742     0.08900
C3223       C  0.62280094  0.31512034  0.74933687     0.10000
S3224       S  0.57217284  0.29717908  0.79338114    -0.24700
H3225       H  0.59990626  0.31341220  0.84395050     0.20200
S3226       S  0.67757201  0.31530477  0.81356909    -0.30400
H3227       H  0.65348016  0.30409443  0.76231484     0.10500
C3228       C  0.64489356  0.34258058  0.74503266     0.03700
C3229       C  0.64838680  0.35141707  0.71908198    -0.12700
C3230       C  0.62972188  0.33374988  0.69821279    -0.08400
C3231       C  0.60418899  0.30949630  0.70651636     0.07200
C3232       C  0.60201004  0.29911932  0.73066334    -0.13500
S3233       S  0.66824108  0.36669737  0.77259038    -0.30400
H3234       H  0.66579628  0.37198031  0.71488697     0.11400
S3235       S  0.57312360  0.29271542  0.69004114    -0.27500
H3236       H  0.58358836  0.27925303  0.73572452     0.08700
H3237       H  0.67111045  0.31339921  0.84327459     0.27100
H3238       H  0.68459371  0.38957536  0.75721985     0.21900
H3239       H  0.58151653  0.31580326  0.67892904     0.27200
H3240       H  0.56354753  0.29805286  0.82273048     0.16000
C3241       C  0.64166199  0.37139589  0.99215991    -0.11200
C3242       C  0.66707803  0.39108723  0.00314448     0.15300
C3243       C  0.68988601  0.40716613  0.98451948     0.02200
C3244       C  0.68726109  0.40027767  0.95490434    -0.15600
C3245       C  0.66249202  0.37712032  0.94390715    -0.10400
C3246       C  0.63870343  0.36493468  0.96297752     0.08900
C3247       C  0.66631952  0.38833498  0.53514533     0.10000
S3248       S  0.72265892  0.43567363  0.99731740    -0.24700
H3249       H  0.70456179  0.41331971  0.94080336     0.20200
S3250       S  0.60357173  0.33974013  0.95387739    -0.30400
H3251       H  0.62383758  0.35919750  0.00645254     0.10500
C3252       C  0.64679092  0.38548967  0.55631083     0.03700
C3253       C  0.63824225  0.36942066  0.57773382    -0.12700
C3254       C  0.65384519  0.36309964  0.58393806    -0.08400
C3255       C  0.67328679  0.36536933  0.56233061     0.07200
C3256       C  0.67934463  0.37816611  0.53828696    -0.13500
S3257       S  0.63131342  0.40056807  0.55485470    -0.30400
H3258       H  0.61978343  0.36283744  0.59053246     0.11400
S3259       S  0.68772814  0.34872821  0.56052563    -0.27500
H3260       H  0.69263219  0.37811358  0.52073585     0.08700
H3261       H  0.60541741  0.33652764  0.92389341     0.27100
H3262       H  0.61738969  0.39488001  0.58225386     0.21900
H3263       H  0.67139043  0.33228672  0.58260588     0.27200
H3264       H  0.71203096  0.43830068  0.52811485     0.16000
C3265       C  0.55805783  0.20478478  0.61240638    -0.11200
C3266       C  0.57518654  0.19852046  0.61187065     0.15300
C3267       C  0.60322709  0.21871300  0.60552690     0.02200
C3268       C  0.61368859  0.24526954  0.60275763    -0.15600
C3269       C  0.59676110  0.25210825  0.60556654    -0.10400
C3270       C  0.56854756  0.23124096  0.60921752     0.08900
C3271       C  0.56368887  0.17203760  0.62121161     0.10000
S3272       S  0.62687238  0.21242650  0.60299537    -0.24700
H3273       H  0.63537037  0.26126959  0.60061001     0.20200
S3274       S  0.54527206  0.23812169  0.61317845    -0.30400
H3275       H  0.53651905  0.18940821  0.61702118     0.10500
C3276       C  0.56779837  0.17082427  0.64876056     0.03700
C3277       C  0.55697883  0.14558464  0.65678878    -0.12700
C3278       C  0.54190655  0.12126346  0.63799045    -0.08400
C3279       C  0.53793517  0.12261771  0.61032049     0.07200
C3280       C  0.54842442  0.14781149  0.60246607    -0.13500
S3281       S  0.58613391  0.20134161  0.67412577    -0.30400
H3282       H  0.55985133  0.14470071  0.67809654     0.11400
S3283       S  0.52109426  0.09331471  0.58347972    -0.27500
H3284       H  0.54533092  0.14867507  0.58124716     0.08700
H3285       H  0.56227267  0.26146677  0.59855367     0.27100
H3286       H  0.58507231  0.18909300  0.69620381     0.21900
H3287       H  0.53220129  0.08227833  0.59033411     0.27200
H3288       H  0.60849898  0.18416756  0.59449513     0.16000
C3289       C  0.83226210  0.41611519  0.64305823    -0.11200
C3290       C  0.82522028  0.43284224  0.64472819     0.15300
C3291       C  0.84597991  0.46147778  0.64645871     0.02200
C3292       C  0.87282888  0.47270805  0.64835867    -0.15600
C3293       C  0.87979468  0.45598988  0.64771579    -0.10400
C3294       C  0.85917905  0.42723427  0.64372471     0.08900
C3295       C  0.79609477  0.41978045  0.64488441     0.10000
S3296       S  0.83949556  0.48476704  0.64649105    -0.24700
H3297       H  0.89044302  0.99788939  0.65505601     0.20200
S3298       S  0.86586182  0.40350182  0.63845286    -0.30400
H3299       H  0.81660510  0.39411304  0.64100133     0.10500
C3300       C  0.78125674  0.40337997  0.62042018     0.03700
C3301       C  0.75381621  0.39124564  0.62147071    -0.12700
C3302       C  0.74065884  0.39527978  0.64634322    -0.08400
C3303       C  0.75576641  0.41225802  0.67065693     0.07200
C3304       C  0.78306181  0.42387794  0.66982580    -0.13500
S3305       S  0.79743412  0.39849430  0.58748198    -0.30400
H3306       H  0.74237854  0.37836208  0.60280897     0.11400
S3307       S  0.74197925  0.42126734  0.70261111    -0.27500
H3308       H  0.79442927  0.43671567  0.68858735     0.08700
H3309       H  0.89104899  0.42045935  0.62314106     0.27100
H3310       H  0.77546432  0.38432172  0.57029590     0.21900
H3311       H  0.72554110  0.42190343  0.68788066     0.27200
H3312       H  0.81735054  0.46682320  0.62922139     0.16000
C3313       C  0.61873146  0.44392894  0.66791050    -0.11200
C3314       C  0.59104268  0.42909187  0.67578033     0.15300
C3315       C  0.57600003  0.40269679  0.68410616     0.02200
C3316       C  0.58859467  0.39122306  0.68273207    -0.15600
C3317       C  0.61605163  0.40568402  0.67378072    -0.10400
C3318       C  0.63143252  0.43273880  0.66733406     0.08900
C3319       C  0.57844108  0.44149700  0.67440641     0.10000
S3320       S  0.54062420  0.38236739  0.69597770    -0.24700
H3321       H  0.57664795  0.37039548  0.68746470     0.20200
S3322       S  0.66729640  0.45387922  0.65801006    -0.30400
H3323       H  0.63049602  0.46433661  0.66192709     0.10500
C3324       C  0.58543263  0.46495629  0.69300551     0.03700
C3325       C  0.57269106  0.47572347  0.69145053    -0.12700
C3326       C  0.55276134  0.46345494  0.67192253    -0.08400
C3327       C  0.54604405  0.44013376  0.65301977     0.07200
C3328       C  0.55924459  0.42969189  0.65416249    -0.13500
S3329       S  0.60940892  0.48036275  0.71995145    -0.30400
H3330       H  0.57779378  0.49349315  0.70613639     0.11400
S3331       S  0.02115867  0.42222355  0.62656294    -0.27500
H3332       H  0.55393071  0.41170319  0.63976019     0.08700
H3333       H  0.67189026  0.44007930  0.67189600     0.27100
H3334       H  0.60517874  0.99881606  0.72722120     0.21900
H3335       H  0.00234258  0.42271173  0.64621315     0.27200
H3336       H  0.54091133  0.40442534  0.70773239     0.16000
C3337       C  0.56113232  0.21548142  0.91042917    -0.11200
C3338       C  0.57408710  0.20691889  0.91850739     0.15300
C3339       C  0.60094126  0.22688091  0.92705148     0.02200
C3340       C  0.61462218  0.25448862  0.92538835    -0.15600
C3341       C  0.60200953  0.26269012  0.91584540    -0.10400
C3342       C  0.57462682  0.24312716  0.90962188     0.08900
C3343       C  0.56024893  0.17723528  0.91492735     0.10000
S3344       S  0.61935614  0.21850585  0.93897680    -0.24700
H3345       H  0.63567413  0.26957310  0.93013713     0.20200
S3346       S  0.55631994  0.25234564  0.89943690    -0.30400
H3347       H  0.54065824  0.20048012  0.90374778     0.10500
C3348       C  0.53469764  0.15829053  0.92892133     0.03700
C3349       C  0.52325993  0.13068051  0.92544415    -0.12700
C3350       C  0.53714239  0.12185371  0.90896712    -0.08400
C3351       C  0.56212077  0.14052795  0.89420664     0.07200
C3352       C  0.57309866  0.16782625  0.89683533    -0.13500
S3353       S  0.51762962  0.16931881  0.95321660    -0.30400
H3354       H  0.50435163  0.11624485  0.93722376     0.11400
S3355       S  0.58145724  0.13096429  0.87281294    -0.27500
H3356       H  0.59230305  0.18208338  0.88536162     0.08700
H3357       H  0.57229856  0.27921181  0.91343508     0.27100
H3358       H  0.99594494  0.14186458  0.96502182     0.21900
H3359       H  0.55922566  0.10349182  0.86534661     0.27200
H3360       H  0.59659467  0.19448904  0.95039765     0.16000
C3361       C  0.83743079  0.41970486  0.87771906    -0.11200
C3362       C  0.83632714  0.43643670  0.86454353     0.15300
C3363       C  0.86057096  0.46253490  0.85897581     0.02200
C3364       C  0.88494168  0.47161606  0.86770922    -0.15600
C3365       C  0.88608225  0.45539159  0.88215776    -0.10400
C3366       C  0.86175162  0.42848324  0.88629076     0.08900
C3367       C  0.80913461  0.42700307  0.86025643     0.10000
S3368       S  0.86174652  0.48554873  0.84144121    -0.24700
H3369       H  0.90309294  0.49199096  0.86376805     0.20200
S3370       S  0.86028371  0.40479761  0.90317223    -0.30400
H3371       H  0.81873217  0.39986768  0.88231111     0.10500
C3372       C  0.79061035  0.40239214  0.84304575     0.03700
C3373       C  0.76353429  0.39169571  0.84408114    -0.12700
C3374       C  0.75454768  0.40515196  0.86193107    -0.08400
C3375       C  0.77390394  0.43113216  0.87694223     0.07200
C3376       C  0.80062055  0.44137477  0.87643630    -0.13500
S3377       S  0.80136704  0.38434568  0.82021708    -0.30400
H3378       H  0.74900264  0.37210912  0.83215580     0.11400
S3379       S  0.76593033  0.45237721  0.89714716    -0.27500
H3380       H  0.81476908  0.46044757  0.88942667     0.08700
H3381       H  0.82874915  0.90248391  0.94102636     0.27100
H3382       H  0.77573758  0.36132180  0.81101524     0.21900
H3383       H  0.74498507  0.44239808  0.88016653     0.27200
H3384       H  0.83904094  0.46514761  0.82551111     0.16000
C3385       C  0.57101999  0.38842919  0.88771067    -0.11200
C3386       C  0.58623467  0.41683066  0.88901140     0.15300
C3387       C  0.61470190  0.43346066  0.88489950     0.02200
C3388       C  0.62726557  0.42169429  0.88144929    -0.15600
C3389       C  0.61213772  0.39346895  0.88098301    -0.10400
C3390       C  0.58361714  0.37659023  0.88369163     0.08900
C3391       C  0.57218343  0.42879309  0.89651625     0.10000
S3392       S  0.63614782  0.46985242  0.88403190    -0.24700
H3393       H  0.64911311  0.43465429  0.87931777     0.20200
S3394       S  0.56218894  0.34001632  0.88307257    -0.30400
H3395       H  0.54918944  0.37548197  0.89071657     0.10500
C3396       C  0.55652516  0.42603122  0.87689552     0.03700
C3397       C  0.54456985  0.43864163  0.88459734    -0.12700
C3398       C  0.54797669  0.45427269  0.91158418    -0.08400
C3399       C  0.56399637  0.45711059  0.93107808     0.07200
C3400       C  0.57547774  0.44410976  0.92350222    -0.13500
S3401       S  0.55236420  0.40703864  0.84169435    -0.30400
H3402       H  0.53232242  0.43613030  0.86950140     0.11400
S3403       S  0.57217963  0.47841410  0.96515496    -0.27500
H3404       H  0.58777938  0.44657867  0.93852933     0.08700
H3405       H  0.58057399  0.33928147  0.89333942     0.27100
H3406       H  0.53925424  0.41398160  0.83037447     0.21900
H3407       H  0.57801723  0.50018554  0.95357700     0.27200
H3408       H  0.61722824  0.46968212  0.87341349     0.16000
C3409       C  0.88166734  0.09423558  0.70399251    -0.11200
C3410       C  0.89858340  0.10039490  0.72432748     0.15300
C3411       C  0.90244407  0.11845154  0.74944574     0.02200
C3412       C  0.88908716  0.12946558  0.75383301    -0.15600
C3413       C  0.87235331  0.12359537  0.73342169    -0.10400
C3414       C  0.86834790  0.10533992  0.70835869     0.08900
C3415       C  0.91160123  0.08743950  0.71901470     0.10000
S3416       S  0.92463690  0.12883268  0.77644511    -0.24700
H3417       H  0.89265196  0.14370908  0.77286770     0.20200
S3418       S  0.84564179  0.09440902  0.68179492    -0.30400
H3419       H  0.87841679  0.08023504  0.68479964     0.10500
C3420       C  0.90332946  0.06686511  0.73516871     0.03700
C3421       C  0.91728666  0.05639647  0.73062966    -0.12700
C3422       C  0.93932353  0.06589178  0.71005619    -0.08400
C3423       C  0.94735065  0.08636431  0.69370243     0.07200
C3424       C  0.93326671  0.09660962  0.69811386    -0.13500
S3425       S  0.87448398  0.05339562  0.76100595    -0.30400
H3426       H  0.91068800  0.04034875  0.74276165     0.11400
S3427       S  0.97625624  0.10135460  0.66798327    -0.27500
H3428       H  0.93980518  0.11253071  0.68577838     0.08700
H3429       H  0.82816206  0.09729239  0.70107668     0.27100
H3430       H  0.87729412  0.03701517  0.77253686     0.21900
H3431       H  0.99206537  0.10111498  0.68431148     0.27200
H3432       H  0.94257588  0.12618735  0.75791677     0.16000
C3433       C  0.92849956  0.32317257  0.77480997    -0.11200
C3434       C  0.91214973  0.33028357  0.77458984     0.15300
C3435       C  0.88388315  0.31047682  0.77994715     0.02200
C3436       C  0.87245375  0.28347851  0.78206018    -0.15600
C3437       C  0.88872608  0.27595483  0.77998487    -0.10400
C3438       C  0.91705625  0.29639495  0.77798094     0.08900
C3439       C  0.92440741  0.35668073  0.76427939     0.10000
S3440       S  0.86139026  0.31826173  0.78285915    -0.24700
H3441       H  0.85068117  0.26787668  0.78359677     0.20200
S3442       S  0.93936253  0.28877734  0.77747403    -0.30400
H3443       H  0.95021023  0.33819206  0.77105141     0.10500
C3444       C  0.94358917  0.38233024  0.77948650     0.03700
C3445       C  0.95465575  0.40647257  0.76822412    -0.12700
C3446       C  0.94722397  0.40558088  0.74170969    -0.08400
C3447       C  0.92887198  0.37966981  0.72597371     0.07200
C3448       C  0.91745353  0.35577970  0.73760175    -0.13500
S3449       S  0.95311276  0.38447842  0.81388234    -0.30400
H3450       H  0.96860742  0.42606759  0.78055161     0.11400
S3451       S  0.92020576  0.37538991  0.69017288    -0.27500
H3452       H  0.90343255  0.33614903  0.72531977     0.08700
H3453       H  0.92065437  0.26515677  0.79156147     0.27100
H3454       H  0.97815366  0.41081906  0.81254033     0.21900
H3455       H  0.94647052  0.39744613  0.68080265     0.27200
H3456       H  0.88031811  0.34595352  0.79353073     0.16000
C3457       C  0.65297480  0.07822163  0.69184641    -0.11200
C3458       C  0.66105562  0.07866032  0.71748555     0.15300
C3459       C  0.64147212  0.06701292  0.74087598     0.02200
C3460       C  0.61504236  0.05700520  0.73879251    -0.15600
C3461       C  0.60723548  0.05764419  0.71353312    -0.10400
C3462       C  0.62633652  0.06722297  0.68933062     0.08900
C3463       C  0.69035260  0.09344114  0.71998187     0.10000
S3464       S  0.64897676  0.06445930  0.77405590    -0.24700
H3465       H  0.60061178  0.04912020  0.75727877     0.20200
S3466       S  0.61789927  0.06503380  0.65418581    -0.30400
H3467       H  0.66761699  0.08662875  0.67358944     0.10500
C3468       C  0.70442829  0.08475023  0.70292521     0.03700
C3469       C  0.73220607  0.09989678  0.70601679    -0.12700
C3470       C  0.74620317  0.12353431  0.72583573    -0.08400
C3471       C  0.73214410  0.13242166  0.74239289     0.07200
C3472       C  0.70456381  0.11731136  0.73943182    -0.13500
S3473       S  0.68677758  0.05372680  0.67821240    -0.30400
H3474       H  0.74295941  0.09300740  0.69361514     0.11400
S3475       S  0.74844861  0.16320441  0.76743168    -0.27500
H3476       H  0.69408754  0.12440677  0.75223797     0.08700
H3477       H  0.59170693  0.03984552  0.65629369     0.27100
H3478       H  0.70891710  0.05419477  0.66880871     0.21900
H3479       H  0.77396833  0.17736035  0.75225239     0.27200
H3480       H  0.66970842  0.06327507  0.76192085     0.16000
C3481       C  0.86785842  0.07888541  0.98511815    -0.11200
C3482       C  0.88993454  0.08787762  0.96492641     0.15300
C3483       C  0.89678053  0.10585913  0.94570424     0.02200
C3484       C  0.88217002  0.11541412  0.94812292    -0.15600
C3485       C  0.86056967  0.10701860  0.96899668    -0.10400
C3486       C  0.85304718  0.08801139  0.98718014     0.08900
C3487       C  0.90467481  0.07732447  0.96418586     0.10000
S3488       S  0.92437597  0.11805067  0.91838407    -0.24700
H3489       H  0.88819997  0.13016553  0.93432031     0.20200
S3490       S  0.82272186  0.07303143  0.51080144    -0.30400
H3491       H  0.86215887  0.06464742  0.99947848     0.10500
C3492       C  0.92891700  0.09197518  0.47752667     0.03700
C3493       C  0.94164557  0.08096568  0.97697249    -0.12700
C3494       C  0.93057779  0.05483980  0.96233634    -0.08400
C3495       C  0.90578435  0.03958040  0.94960259     0.07200
C3496       C  0.89329438  0.05099862  0.95043969    -0.13500
S3497       S  0.94368011  0.12575361  0.49601176    -0.30400
H3498       H  0.96168927  0.09312930  0.48434815     0.11400
S3499       S  0.88871768  0.00514758  0.93234674    -0.27500
H3500       H  0.87439200  0.03918112  0.94039615     0.08700
H3501       H  0.80931849  0.07694229  0.49513639     0.27100
H3502       H  0.96595862  0.13065985  0.50532479     0.21900
H3503       H  0.89734058  0.99772680  0.95041098     0.27200
H3504       H  0.92428852  0.09583943  0.91496956     0.16000
C3505       C  0.91379548  0.30264620  0.49647453    -0.11200
C3506       C  0.90248109  0.30733379  0.97390853     0.15300
C3507       C  0.87549888  0.28640816  0.96619214     0.02200
C3508       C  0.86266001  0.25908252  0.96882279    -0.15600
C3509       C  0.87623814  0.25178695  0.97826984    -0.10400
C3510       C  0.90232453  0.27539474  0.49682034     0.08900
C3511       C  0.91666499  0.33697954  0.97375198     0.10000
S3512       S  0.85632944  0.29315171  0.95283674    -0.24700
H3513       H  0.84177084  0.24332414  0.96369191     0.20200
S3514       S  0.92209961  0.26950849  0.51014313    -0.30400
H3515       H  0.93293037  0.31883839  0.50593675     0.10500
C3516       C  0.90897539  0.35084826  0.99371618     0.03700
C3517       C  0.92227080  0.37856312  0.99206458    -0.12700
C3518       C  0.94364824  0.39302602  0.97131660    -0.08400
C3519       C  0.95186659  0.37928907  0.95200391     0.07200
C3520       C  0.93855565  0.35166135  0.95357785    -0.13500
S3521       S  0.88250394  0.33335213  0.02162751    -0.30400
H3522       H  0.91577328  0.38894074  0.00671163     0.11400
S3523       S  0.97868176  0.39576354  0.92428348    -0.27500
H3524       H  0.94482739  0.34129729  0.93839686     0.08700
H3525       H  0.91428009  0.24694141  0.48945263     0.27100
H3526       H  0.88556202  0.35635635  0.03653391     0.21900
H3527       H  0.96903095  0.40712241  0.91476138     0.27200
H3528       H  0.87858647  0.31637788  0.93982649     0.16000
C3529       C  0.65035087  0.08970380  0.99098894    -0.11200
C3530       C  0.64946015  0.08215926  0.01709883     0.15300
C3531       C  0.62418858  0.06510633  0.53191454     0.02200
C3532       C  0.60004450  0.05419028  0.52055274    -0.15600
C3533       C  0.60133963  0.06174978  0.99409267    -0.10400
C3534       C  0.62676531  0.07939056  0.97910305     0.08900
C3535       C  0.67534950  0.09193278  0.02643621     0.10000
S3536       S  0.62219980  0.06009123  0.56858452    -0.24700
H3537       H  0.58132816  0.04306066  0.53394921     0.20200
S3538       S  0.63056481  0.08782351  0.94366585    -0.30400
H3539       H  0.66963908  0.10285762  0.97905223     0.10500
C3540       C  0.68138519  0.07418681  0.02438327     0.03700
C3541       C  0.70793404  0.08514219  0.02752752    -0.12700
C3542       C  0.72878949  0.11348016  0.03205840    -0.08400
C3543       C  0.72256779  0.13125065  0.52992214     0.07200
C3544       C  0.69578417  0.11951664  0.52708700    -0.13500
S3545       S  0.65645487  0.03800393  0.01375108    -0.30400
H3546       H  0.71316682  0.07183600  0.02331817     0.11400
S3547       S  0.74776924  0.16773668  0.53009495    -0.27500
H3548       H  0.69115854  0.13261332  0.52542635     0.08700
H3549       H  0.60851972  0.06121239  0.93319756     0.27100
H3550       H  0.67039599  0.03043919  0.02176626     0.21900
H3551       H  0.76685046  0.17075757  0.54420373     0.27200
H3552       H  0.64901027  0.08289080  0.57430236     0.16000
C3553       C  0.78218568  0.14807128  0.90635290    -0.11200
C3554       C  0.78361581  0.13056768  0.88498196     0.15300
C3555       C  0.78559240  0.11212213  0.89276213     0.02200
C3556       C  0.79368375  0.11677496  0.91999002    -0.15600
C3557       C  0.79896446  0.13906601  0.93948261    -0.10400
C3558       C  0.78903310  0.15213917  0.93395513     0.08900
C3559       C  0.79517058  0.14055305  0.85689655     0.10000
S3560       S  0.78203732  0.08524532  0.86722506    -0.24700
H3561       H  0.79607674  0.10312059  0.92552968     0.20200
S3562       S  0.78567786  0.17566081  0.95865700    -0.30400
H3563       H  0.77936068  0.16149397  0.90074600     0.10500
C3564       C  0.78343608  0.14651744  0.84151456     0.03700
C3565       C  0.79829660  0.16115037  0.81804365    -0.12700
C3566       C  0.82269979  0.16628675  0.80726976    -0.08400
C3567       C  0.83618792  0.16434747  0.82535921     0.07200
C3568       C  0.82192010  0.15068978  0.84944777    -0.13500
S3569       S  0.74954131  0.13505515  0.85112570    -0.30400
H3570       H  0.79028463  0.16758522  0.80734668     0.11400
S3571       S  0.87193724  0.18135295  0.82144372    -0.27500
H3572       H  0.83225000  0.14916273  0.86337655     0.08700
H3573       H  0.79092840  0.17430580  0.98502955     0.27100
H3574       H  0.74696897  0.14181471  0.82640184     0.21900
H3575       H  0.87951935  0.20226689  0.80669097     0.27200
H3576       H  0.76869096  0.08570326  0.84746586     0.16000
C3577       C  0.87976409  0.19740787  0.58138900    -0.11200
C3578       C  0.86146727  0.18289553  0.60370248     0.15300
C3579       C  0.83514921  0.15883650  0.59813277     0.02200
C3580       C  0.82616504  0.15252813  0.57111583    -0.15600
C3581       C  0.84323654  0.16930938  0.54931704    -0.10400
C3582       C  0.87148151  0.18966648  0.55361262     0.08900
C3583       C  0.86836292  0.19469545  0.63312081     0.10000
S3584       S  0.81190687  0.13611462  0.62498439    -0.24700
H3585       H  0.80593329  0.13396233  0.56712868     0.20200
S3586       S  0.89889520  0.20627159  0.52611637    -0.30400
H3587       H  0.90052793  0.21486588  0.58571506     0.10500
C3588       C  0.88381998  0.19222864  0.64680530     0.03700
C3589       C  0.88083490  0.19372701  0.67667861    -0.12700
C3590       C  0.86021461  0.19392683  0.69197159    -0.08400
C3591       C  0.84965215  0.20284067  0.67861764     0.07200
C3592       C  0.85406257  0.20308794  0.64900699    -0.13500
S3593       S  0.90446874  0.18390065  0.62640014    -0.30400
H3594       H  0.89368636  0.19343373  0.68771607     0.11400
S3595       S  0.82916715  0.21257906  0.69592885    -0.27500
H3596       H  0.84369998  0.20675090  0.63790423     0.08700
H3597       H  0.88584960  0.18935213  0.50130402     0.27100
H3598       H  0.90824674  0.17645038  0.64959509     0.21900
H3599       H  0.82900429  0.21127940  0.72486397     0.27200
H3600       H  0.83176941  0.14186086  0.64059129     0.16000
C3601       C  0.81554110  0.65024213  0.46932059     0.30200
C3602       C  0.83386030  0.66496524  0.02106698     0.30200
C3603       C  0.83015924  0.63988968  0.47536645    -0.06000
C3604       C  0.83641461  0.68139715  0.47800068    -0.06800
C3605       C  0.79335340  0.64014381  0.49382260    -0.06700
C3606       C  0.83794155  0.64606705  0.00037660    -0.06100
C3607       C  0.84633066  0.68897216  0.00417605    -0.06800
C3608       C  0.80297664  0.64923328  0.02032084    -0.06700
C3609       C  0.84989191  0.63501596  0.00222393    -0.32100
N3610       N  0.85023433  0.62294349  0.48105723     0.14400
C3611       C  0.83916738  0.62539951  0.46157116    -0.32100
H3612       H  0.83843585  0.61752999  0.43907197     0.16300
C3613       C  0.86328032  0.71715940  0.00950839    -0.31100
N3614       N  0.86715656  0.72746595  0.98515591     0.13100
C3615       C  0.84895102  0.70530113  0.46612850    -0.31100
C3616       C  0.77998275  0.64144573  0.03864499    -0.31400
N3617       N  0.75876003  0.62913837  0.02220981     0.13600
H3618       H  0.77888723  0.64529546  0.06191599     0.16300
C3619       C  0.76619705  0.62668670  0.49503665    -0.31400
H3620       H  0.75410489  0.61855356  0.47683683     0.16300
H3621       H  0.84729688  0.70679765  0.44452956     0.16300
H3622       H  0.85864836  0.63717543  0.02097897     0.16300
H3623       H  0.87179371  0.72929650  0.02976851     0.16300
C3624       C  0.85329414  0.68712327  0.21729900     0.30200
C3625       C  0.83421322  0.67422083  0.27195223     0.30200
C3626       C  0.85562506  0.66690886  0.22608889    -0.06000
C3627       C  0.86688198  0.71079314  0.24106737    -0.06800
C3628       C  0.82268619  0.67220300  0.22388778    -0.06700
C3629       C  0.84577324  0.66038366  0.25410105    -0.06100
C3630       C  0.85678136  0.70483613  0.26888391    -0.06800
C3631       C  0.81283215  0.66533406  0.25186782    -0.06700
C3632       C  0.84888210  0.64198377  0.25827495    -0.32100
N3633       N  0.86057351  0.63728667  0.23379200     0.14400
C3634       C  0.86422271  0.65190526  0.21383926    -0.32100
H3635       H  0.87286096  0.65164951  0.19216741     0.16300
C3636       C  0.86838291  0.72982577  0.28589799    -0.31100
N3637       N  0.88609709  0.75022369  0.26876207     0.13100
C3638       C  0.88533399  0.73859828  0.24142448    -0.31100
C3639       C  0.78494433  0.64590550  0.25121235    -0.31400
N3640       N  0.77752706  0.64271054  0.22488190     0.13600
H3641       H  0.77067703  0.63348978  0.26794744     0.16300
C3642       C  0.80044318  0.65783749  0.20758250    -0.31400
H3643       H  0.80088620  0.65764416  0.18469873     0.16300
H3644       H  0.89545013  0.74965605  0.22272053     0.16300
H3645       H  0.84367286  0.63313172  0.27795138     0.16300
H3646       H  0.86325382  0.73287760  0.30853783     0.16300
O3647       O  0.53166566  0.97477260  0.39755229    -0.75100
O3648       O  0.52968156  0.97384201  0.44612365    -0.54100
C3649       C  0.53620697  0.96946763  0.41938582     0.78600
O3650       O  0.54208703  0.59347324  0.42701418    -0.59700
O3651       O  0.00462889  0.57233504  0.40453003    -0.52800
C3652       C  0.52755805  0.59402955  0.41260055     0.70600
O3653       O  0.57364508  0.56241527  0.46842112    -0.74300
O3654       O  0.55278853  0.52331939  0.48855011    -0.54900
C3655       C  0.57361039  0.54760404  0.48300322     0.76600
O3656       O  0.00584846  0.50355958  0.34044207    -0.59400
O3657       O  0.98490165  0.52228740  0.35233885    -0.52600
C3658       C  0.99592379  0.51384487  0.33270852     0.73200
Zr3659     Zr  0.51201780  0.99401071  0.38630477     2.54700
O3660       O  0.55860857  0.52192249  0.36093336    -0.80000
O3661       O  0.99222811  0.95187489  0.35433080    -0.93400
Zr3662     Zr  0.54203505  0.56039091  0.44424893     2.64700
O3663       O  0.58343321  0.58290505  0.41285813    -0.98400
O3664       O  0.56136601  0.60045807  0.48007328    -0.80400
O3665       O  0.53383310  0.51848334  0.43189257    -0.83800
O3666       O  0.52184606  0.53773718  0.39905423    -2.18500
O3667       O  0.91109932  0.95175335  0.41051639    -0.67200
O3668       O  0.93033149  0.49178319  0.39164020    -0.51800
C3669       C  0.90970053  0.96610114  0.39699958     0.71600
O3670       O  0.98164852  0.51746362  0.03967794    -0.60100
O3671       O  0.50371150  0.00132338  0.02848131    -0.52100
C3672       C  0.99118197  0.00773429  0.04630340     0.73400
O3673       O  0.94965598  0.53880564  0.48082001    -0.71500
O3674       O  0.95107033  0.53860215  0.43206249    -0.50200
C3675       C  0.94420025  0.54275466  0.45855098     0.74800
O3676       O  0.94301534  0.92352572  0.45330226    -0.66800
O3677       O  0.98024819  0.94481009  0.47813787    -0.54000
C3678       C  0.95755892  0.92334385  0.46812515     0.73100
Zr3679     Zr  0.94422115  0.95690423  0.43506587     2.77500
O3680       O  0.90673737  0.93828768  0.47169688    -0.97600
O3681       O  0.92212156  0.91488289  0.40198967    -0.78400
Zr3682     Zr  0.97108277  0.52109869  0.49235959     2.70100
O3683       O  0.92904051  0.99691753  0.01778029    -0.79600
O3684       O  0.99473903  0.56691285  0.02186709    -0.98700
Zr3685     Zr  0.50711462  0.99207897  0.47257565     2.21500
Zr3686     Zr  0.97630308  0.52344751  0.40736046     2.11100
O3687       O  0.95144578  0.99839293  0.44685048    -2.47400
O3688       O  0.96541897  0.98116505  0.47938395    -0.79400
O3689       O  0.96877706  0.98144183  0.39399548    -0.71600
O3690       O  0.51553205  0.53447305  0.48388657    -2.32600
O3691       O  0.98766254  0.96933323  0.42621470    -2.28800
O3692       O  0.99774514  0.54698233  0.45239708    -0.73400
H3693       H  0.53254116  0.54944674  0.38395459     0.78600
H3694       H  0.52469932  0.54168259  0.00180295     0.79700
H3695       H  0.93394371  0.99393725  0.44964827     0.81900
H3696       H  0.98565817  0.95285760  0.42163312     0.79500
H3697       H  0.57683507  0.61588536  0.46954118     0.42600
H3698       H  0.50497045  0.57970920  0.00783198     0.41500
H3699       H  0.91673001  0.98072251  0.00421742     0.41200
H3700       H  0.90065726  0.94913748  0.47298101     0.39100
H3701       H  0.93392713  0.92029863  0.38393545     0.42300
H3702       H  0.98991809  0.93941940  0.36607736     0.37100
H3703       H  0.55945897  0.50793129  0.34894753     0.43200
H3704       H  0.58050429  0.58958553  0.39830835     0.39600
H3705       H  0.89205529  0.91986711  0.46278420     0.44500
H3706       H  0.00693343  0.95580383  0.33958799     0.43200
H3707       H  0.59719673  0.59968037  0.42486927     0.43400
H3708       H  0.00009852  0.57982446  0.00853375     0.43700
O3709       O  0.53686862  0.98062613  0.14992548    -0.75100
O3710       O  0.53606870  0.98279921  0.19899327    -0.54100
C3711       C  0.54241419  0.97743018  0.17280158     0.78600
O3712       O  0.54588749  0.59213135  0.15940475    -0.59700
O3713       O  0.00786643  0.57470856  0.14361764    -0.52800
C3714       C  0.53019906  0.59130252  0.14517476     0.70600
O3715       O  0.57916916  0.56016672  0.19603204    -0.74300
O3716       O  0.56149205  0.52867708  0.22688786    -0.54900
C3717       C  0.58136879  0.54773712  0.21181212     0.76600
O3718       O  0.50070459  0.49591988  0.08897755    -0.59400
O3719       O  0.98307744  0.51936068  0.10098853    -0.52600
C3720       C  0.99299295  0.50926597  0.08188426     0.73200
Zr3721     Zr  0.51434543  0.99703895  0.13727368     2.54700
O3722       O  0.55153097  0.51148343  0.10602365    -0.80000
O3723       O  0.98202797  0.94639004  0.11156800    -0.93400
Zr3724     Zr  0.54508472  0.56268024  0.18618678     2.64700
O3725       O  0.58880468  0.59123248  0.15955555    -0.98400
O3726       O  0.56277731  0.60112393  0.22392175    -0.80400
O3727       O  0.53481639  0.51969817  0.17817792    -0.83800
O3728       O  0.51976993  0.53442081  0.14486862    -2.18500
O3729       O  0.90959464  0.95687425  0.16785936    -0.67200
O3730       O  0.93072634  0.49572224  0.14705173    -0.51800
C3731       C  0.90780879  0.97094500  0.15424722     0.71600
O3732       O  0.98656224  0.52532041  0.29103867    -0.60100
O3733       O  0.50844087  0.00648651  0.27840380    -0.52100
C3734       C  0.99537025  0.01352453  0.29660646     0.73400
O3735       O  0.96039603  0.55280097  0.23084479    -0.71500
O3736       O  0.95974353  0.55001264  0.18191018    -0.50200
C3737       C  0.95508793  0.55677269  0.20844430     0.74800
O3738       O  0.94289440  0.93024366  0.21344793    -0.66800
O3739       O  0.98282682  0.95285998  0.23339872    -0.54000
C3740       C  0.95876526  0.93117348  0.22745143     0.73100
Zr3741     Zr  0.94374119  0.96134117  0.18995114     2.77500
O3742       O  0.90645582  0.94598665  0.22661469    -0.97600
O3743       O  0.91884424  0.91711475  0.16063865    -0.78400
Zr3744     Zr  0.98059159  0.53431442  0.24354393     2.70100
O3745       O  0.93712817  0.01326277  0.27195736    -0.79600
O3746       O  0.00433344  0.57930135  0.27141585    -0.98700
Zr3747     Zr  0.51403644  0.00121686  0.22316712     2.21500
Zr3748     Zr  0.97878297  0.52811325  0.15669504     2.11100
O3749       O  0.95363389  0.00423276  0.19869828    -2.47400
O3750       O  0.96840442  0.98856126  0.23177162    -0.79400
O3751       O  0.96645237  0.98239382  0.14639165    -0.71600
O3752       O  0.52316771  0.54269217  0.23048933    -2.32600
O3753       O  0.98618576  0.97117612  0.17946110    -2.28800
O3754       O  0.00314099  0.55557276  0.19961876    -0.73400
H3755       H  0.52903945  0.54378609  0.12787371     0.78600
H3756       H  0.53456940  0.55392038  0.24637924     0.79700
H3757       H  0.93664706  0.00088823  0.20236986     0.81900
H3758       H  0.98343850  0.95429311  0.17651234     0.79500
H3759       H  0.56553134  0.61540429  0.21504428     0.42600
H3760       H  0.51800547  0.57925975  0.27778046     0.41500
H3761       H  0.92264269  0.00355682  0.25854654     0.41200
H3762       H  0.90035887  0.95640649  0.22540529     0.39100
H3763       H  0.90074080  0.90584550  0.17091150     0.42300
H3764       H  0.96647121  0.93543186  0.12543739     0.37100
H3765       H  0.56229083  0.53141403  0.11168375     0.43200
H3766       H  0.58468145  0.58616703  0.13904529     0.39600
H3767       H  0.89162719  0.92697791  0.21911568     0.44500
H3768       H  0.99277309  0.94033069  0.11087808     0.43200
H3769       H  0.59493701  0.61006414  0.16433352     0.43400
H3770       H  0.01031558  0.59183369  0.25727089     0.43700
C3771       C  0.64980015  0.84269657  0.35824873     0.30200
C3772       C  0.65997394  0.86558433  0.41384454     0.30200
C3773       C  0.64103322  0.86044179  0.36999090    -0.06000
C3774       C  0.63759075  0.82316391  0.38057991    -0.06800
C3775       C  0.68010769  0.86332921  0.36421018    -0.06700
C3776       C  0.64641743  0.87196904  0.39823792    -0.06100
C3777       C  0.64305626  0.83432477  0.40871156    -0.06800
C3778       C  0.68537095  0.87475375  0.39315064    -0.06700
C3779       C  0.63674887  0.88625276  0.40572885    -0.32100
N3780       N  0.62542245  0.88365600  0.38272288     0.14400
C3781       C  0.62839953  0.86850316  0.36047609    -0.32100
H3782       H  0.62108941  0.86306781  0.33937097     0.16300
C3783       C  0.63066888  0.81266903  0.42460328    -0.31100
N3784       N  0.61725273  0.78903744  0.40636202     0.13100
C3785       C  0.62197299  0.79541113  0.37938153    -0.31100
C3786       C  0.71282594  0.89020720  0.39478315    -0.31400
N3787       N  0.72435661  0.89007116  0.36794949     0.13600
H3788       H  0.72390705  0.89966303  0.41393692     0.16300
C3789       C  0.70474553  0.87400171  0.34903954    -0.31400
H3790       H  0.70832108  0.87023920  0.32611687     0.16300
H3791       H  0.61453520  0.78077230  0.36020583     0.16300
H3792       H  0.63701950  0.89693179  0.42668354     0.16300
H3793       H  0.63074855  0.81389994  0.44764159     0.16300
C3794       C  0.64687218  0.85277140  0.11551185     0.30200
C3795       C  0.63604149  0.83878003  0.16951813     0.30200
C3796       C  0.63418422  0.86335555  0.13836671    -0.06000
C3797       C  0.62779357  0.82171610  0.11775221    -0.06800
C3798       C  0.67182789  0.86430527  0.13097986    -0.06700
C3799       C  0.62806744  0.85570433  0.16562692    -0.06100
C3800       C  0.62307748  0.81501642  0.14530860    -0.06800
C3801       C  0.66638660  0.85641237  0.15822539    -0.06700
C3802       C  0.62079316  0.87032727  0.18369059    -0.32100
N3803       N  0.62352058  0.88750743  0.16808696     0.14400
C3804       C  0.63258514  0.88402964  0.14099431    -0.32100
H3805       H  0.63821832  0.89647775  0.12456856     0.16300
C3806       C  0.61049947  0.78764389  0.14305531    -0.31100
N3807       N  0.60537620  0.77674951  0.11531129     0.13100
C3808       C  0.61634820  0.79739427  0.09923839    -0.31100
C3809       C  0.69108030  0.86745246  0.16753130    -0.31400
N3810       N  0.71124341  0.88328228  0.14776461     0.13600
H3811       H  0.69421424  0.86385349  0.18696111     0.16300
C3812       C  0.69955809  0.88161552  0.12555186    -0.31400
H3813       H  0.71056866  0.89228333  0.10671887     0.16300
H3814       H  0.61700306  0.79514461  0.07596123     0.16300
H3815       H  0.61514422  0.86940239  0.20656888     0.16300
H3816       H  0.60599419  0.77631108  0.16023505     0.16300
C3817       C  0.64093721  0.80346628  0.28283958    -0.11200
C3818       C  0.61947796  0.80134286  0.27622771     0.15300
C3819       C  0.60255561  0.80206042  0.29867365     0.02200
C3820       C  0.61270102  0.81418310  0.32554302    -0.15600
C3821       C  0.63932047  0.82571198  0.32972505    -0.10400
C3822       C  0.65075775  0.81507014  0.31019485     0.08900
C3823       C  0.62283515  0.81134282  0.24965824     0.10000
S3824       S  0.57004465  0.79119747  0.29260938    -0.24700
H3825       H  0.60027437  0.81572848  0.34298030     0.20200
S3826       S  0.67633529  0.81421352  0.31790373    -0.30400
H3827       H  0.65224375  0.79976890  0.26582895     0.10500
C3828       C  0.64517864  0.83871671  0.24503054     0.03700
C3829       C  0.64767599  0.84795697  0.21985771    -0.12700
C3830       C  0.62859550  0.83062827  0.19938658    -0.08400
C3831       C  0.60341454  0.80604361  0.20761938     0.07200
C3832       C  0.60180987  0.79549022  0.23127255    -0.13500
S3833       S  0.67016032  0.86268045  0.27118728    -0.30400
H3834       H  0.66453423  0.86882146  0.21614010     0.11400
S3835       S  0.57198668  0.78867531  0.19161121    -0.27500
H3836       H  0.58349453  0.77555945  0.23631402     0.08700
H3837       H  0.67076141  0.81463754  0.34784300     0.27100
H3838       H  0.68926888  0.88306320  0.25307510     0.21900
H3839       H  0.57981230  0.81097835  0.17938463     0.27200
H3840       H  0.56359687  0.79813395  0.32102608     0.16000
C3841       C  0.63949969  0.87073542  0.49314580    -0.11200
C3842       C  0.66467984  0.88978226  0.50474699     0.15300
C3843       C  0.68800905  0.90550893  0.48654616     0.02200
C3844       C  0.68590770  0.89896474  0.45682774    -0.15600
C3845       C  0.66116978  0.87637388  0.44524665    -0.10400
C3846       C  0.63710835  0.86427861  0.46388884     0.08900
C3847       C  0.66433769  0.88450932  0.03587267     0.10000
S3848       S  0.72083356  0.93296997  0.49998112    -0.24700
H3849       H  0.70364277  0.91182014  0.44314150     0.20200
S3850       S  0.60214303  0.83895962  0.45429300    -0.30400
H3851       H  0.62130689  0.85863460  0.50701915     0.10500
C3852       C  0.64533847  0.88266504  0.05710493     0.03700
C3853       C  0.63649898  0.86687698  0.07885521    -0.12700
C3854       C  0.65157393  0.86008296  0.08539044    -0.08400
C3855       C  0.67083393  0.86171077  0.06390952     0.07200
C3856       C  0.67682920  0.87386663  0.03931098    -0.13500
S3857       S  0.63072238  0.89853117  0.05527110    -0.30400
H3858       H  0.61796141  0.86051570  0.09126178     0.11400
S3859       S  0.68614801  0.84616428  0.06370771    -0.27500
H3860       H  0.68992937  0.87335910  0.02185443     0.08700
H3861       H  0.60418095  0.83558418  0.42430599     0.27100
H3862       H  0.61731086  0.89384229  0.08294754     0.21900
H3863       H  0.67007416  0.83014313  0.08614811     0.27200
H3864       H  0.71042791  0.93424607  0.02922015     0.16000
C3865       C  0.55477435  0.70138137  0.11650837    -0.11200
C3866       C  0.57150702  0.69412971  0.10884806     0.15300
C3867       C  0.59803268  0.71347257  0.09678667     0.02200
C3868       C  0.60808869  0.74026920  0.09591718    -0.15600
C3869       C  0.59215193  0.74821343  0.10627592    -0.10400
C3870       C  0.56477169  0.72806734  0.11533714     0.08900
C3871       C  0.56183651  0.66778817  0.11707496     0.10000
S3872       S  0.62069736  0.70585504  0.08405554    -0.24700
H3873       H  0.62912819  0.75559501  0.08916317     0.20200
S3874       S  0.54226475  0.73586958  0.12814769    -0.30400
H3875       H  0.53426759  0.68665499  0.12525305     0.10500
C3876       C  0.57293752  0.66743654  0.13967857     0.03700
C3877       C  0.56265478  0.64235320  0.14775439    -0.12700
C3878       C  0.54131803  0.61714590  0.13386501    -0.08400
C3879       C  0.53063830  0.61768423  0.11074176     0.07200
C3880       C  0.54057938  0.64279745  0.10308117    -0.13500
S3881       S  0.59939339  0.69901235  0.15940354    -0.30400
H3882       H  0.57088531  0.64247225  0.16564954     0.11400
S3883       S  0.50501126  0.58723095  0.08938586    -0.27500
H3884       H  0.53197748  0.64286519  0.08566550     0.08700
H3885       H  0.55813053  0.76111427  0.11717334     0.27100
H3886       H  0.60424425  0.68737767  0.17649921     0.21900
H3887       H  0.51687967  0.57478589  0.08711551     0.27200
H3888       H  0.60068231  0.67734906  0.07920521     0.16000
C3889       C  0.83256985  0.92009419  0.14172408    -0.11200
C3890       C  0.82518671  0.93688756  0.14806651     0.15300
C3891       C  0.84578521  0.96543259  0.15434815     0.02200
C3892       C  0.87270751  0.97617310  0.15495476    -0.15600
C3893       C  0.87998174  0.95924700  0.14879960    -0.10400
C3894       C  0.85953556  0.93091496  0.14123811     0.08900
C3895       C  0.79595247  0.92382194  0.14772352     0.10000
S3896       S  0.83913229  0.98927317  0.16183568    -0.24700
H3897       H  0.89115603  0.49691017  0.14894655     0.20200
S3898       S  0.86661715  0.90751189  0.12972519    -0.30400
H3899       H  0.81713459  0.89824644  0.13665319     0.10500
C3900       C  0.78184156  0.90880410  0.12247321     0.03700
C3901       C  0.75415291  0.89574986  0.12318921    -0.12700
C3902       C  0.73988754  0.89751423  0.14844296    -0.08400
C3903       C  0.75425843  0.91333084  0.17352482     0.07200
C3904       C  0.78180779  0.92576641  0.17303347    -0.13500
S3905       S  0.79921983  0.90686815  0.08887883    -0.30400
H3906       H  0.74338471  0.88386208  0.10391657     0.11400
S3907       S  0.73915115  0.91973543  0.20629893    -0.27500
H3908       H  0.79242743  0.93740247  0.19248578     0.08700
H3909       H  0.89235561  0.92663034  0.11652487     0.27100
H3910       H  0.77671486  0.89016614  0.07208984     0.21900
H3911       H  0.72229938  0.92042573  0.19242259     0.27200
H3912       H  0.81781877  0.97449328  0.14358803     0.16000
C3913       C  0.62057167  0.94326099  0.16657976    -0.11200
C3914       C  0.59387425  0.93116850  0.17729482     0.15300
C3915       C  0.57877149  0.90657397  0.18987437     0.02200
C3916       C  0.58964237  0.89332440  0.18875103    -0.15600
C3917       C  0.61580231  0.90464460  0.17636681    -0.10400
C3918       C  0.63189974  0.93080575  0.16691729     0.08900
C3919       C  0.58216615  0.94423687  0.17428902     0.10000
S3920       S  0.54543287  0.89095578  0.20724043    -0.24700
H3921       H  0.57719396  0.87348395  0.19639764     0.20200
S3922       S  0.66712664  0.94935598  0.15509207    -0.30400
H3923       H  0.63266393  0.96252594  0.15770974     0.10500
C3924       C  0.59214050  0.97019886  0.18892643     0.03700
C3925       C  0.57977799  0.98121205  0.18638837    -0.12700
C3926       C  0.55734052  0.96678444  0.16983694    -0.08400
C3927       C  0.54771442  0.94104359  0.15474885     0.07200
C3928       C  0.56047115  0.93028876  0.15672852    -0.13500
S3929       S  0.61933600  0.98851559  0.21253972    -0.30400
H3930       H  0.58694746  0.00078057  0.19829037     0.11400
S3931       S  0.01483117  0.91628960  0.13619914    -0.27500
H3932       H  0.55277140  0.91038135  0.14535196     0.08700
H3933       H  0.67128051  0.93606992  0.17052982     0.27100
H3934       H  0.61349284  0.50449081  0.22507617     0.21900
H3935       H  0.00073718  0.92414976  0.15460258     0.27200
H3936       H  0.54963231  0.91551684  0.21673989     0.16000
C3937       C  0.56163585  0.71367031  0.40434143    -0.11200
C3938       C  0.57344173  0.70600577  0.41676577     0.15300
C3939       C  0.59868818  0.72650114  0.42883200     0.02200
C3940       C  0.61217270  0.75402865  0.42679305    -0.15600
C3941       C  0.60084316  0.76156002  0.41323534    -0.10400
C3942       C  0.57485062  0.74113361  0.40278209     0.08900
C3943       C  0.56019102  0.67658627  0.41434457     0.10000
S3944       S  0.61508515  0.71873872  0.44616284    -0.24700
H3945       H  0.63212902  0.76960965  0.43468180     0.20200
S3946       S  0.55777643  0.74882011  0.38658753    -0.30400
H3947       H  0.54226076  0.69807636  0.39513269     0.10500
C3948       C  0.53492921  0.65794618  0.42884808     0.03700
C3949       C  0.52363363  0.63039821  0.42619421    -0.12700
C3950       C  0.53717716  0.62125459  0.40944344    -0.08400
C3951       C  0.56185790  0.63969828  0.39401300     0.07200
C3952       C  0.57308192  0.66711222  0.39661108    -0.13500
S3953       S  0.51799009  0.66949170  0.45230391    -0.30400
H3954       H  0.50492882  0.61621835  0.43840267     0.11400
S3955       S  0.58016441  0.62956119  0.37109708    -0.27500
H3956       H  0.59218360  0.68128555  0.38492619     0.08700
H3957       H  0.57041694  0.77507574  0.40174974     0.27100
H3958       H  0.98392298  0.63526937  0.43583161     0.21900
H3959       H  0.55758038  0.60202544  0.36470138     0.27200
H3960       H  0.59115685  0.69468157  0.45632788     0.16000
C3961       C  0.83352747  0.92296902  0.39219418    -0.11200
C3962       C  0.83277456  0.93309485  0.36943275     0.15300
C3963       C  0.85724220  0.95358526  0.35526085     0.02200
C3964       C  0.88186879  0.96362659  0.36436697    -0.15600
C3965       C  0.88281334  0.95355432  0.38731085    -0.10400
C3966       C  0.85799660  0.93278117  0.40136404     0.08900
C3967       C  0.80597868  0.92298368  0.36294506     0.10000
S3968       S  0.85836966  0.96777479  0.32556182    -0.24700
H3969       H  0.90048001  0.97947081  0.35333583     0.20200
S3970       S  0.85653976  0.91965750  0.43241149    -0.30400
H3971       H  0.81463044  0.90770630  0.40335182     0.10500
C3972       C  0.78594251  0.89536078  0.35254291     0.03700
C3973       C  0.75926092  0.88519626  0.35221815    -0.12700
C3974       C  0.75234166  0.90218596  0.36199138    -0.08400
C3975       C  0.77284495  0.93026619  0.37003923     0.07200
C3976       C  0.79935689  0.94034655  0.37082977    -0.13500
S3977       S  0.79424992  0.87291091  0.34065599    -0.30400
H3978       H  0.74342189  0.86368935  0.34596896     0.11400
S3979       S  0.76592580  0.95383728  0.38016736    -0.27500
H3980       H  0.81471067  0.96162393  0.37861114     0.08700
H3981       H  0.82782206  0.39969617  0.43177650     0.27100
H3982       H  0.76824027  0.84936111  0.33306881     0.21900
H3983       H  0.74375579  0.93905031  0.36310000     0.27200
H3984       H  0.83330210  0.94435561  0.31549641     0.16000
C3985       C  0.57331835  0.89339974  0.40289743    -0.11200
C3986       C  0.58602039  0.91788470  0.39166025     0.15300
C3987       C  0.61107488  0.92982924  0.37529086     0.02200
C3988       C  0.62303487  0.91736674  0.37129612    -0.15600
C3989       C  0.61068420  0.89336825  0.38332079    -0.10400
C3990       C  0.58526758  0.88098937  0.39874570     0.08900
C3991       C  0.57301705  0.93078287  0.39843694     0.10000
S3992       S  0.62924365  0.96100839  0.35918948    -0.24700
H3993       H  0.64261219  0.92694642  0.35960703     0.20200
S3994       S  0.56739622  0.84961533  0.41407781    -0.30400
H3995       H  0.55404946  0.88403330  0.41526031     0.10500
C3996       C  0.55475725  0.92518264  0.38025991     0.03700
C3997       C  0.54299113  0.93795318  0.38769037    -0.12700
C3998       C  0.54949614  0.95673709  0.41272464    -0.08400
C3999       C  0.56851603  0.96281921  0.43038056     0.07200
C4000       C  0.57946581  0.94931962  0.42344558    -0.13500
S4001       S  0.54677845  0.90205810  0.34743342    -0.30400
H4002       H  0.52857824  0.93322277  0.37394579     0.11400
S4003       S  0.58131352  0.98904238  0.46070559    -0.27500
H4004       H  0.59392421  0.95402417  0.43713275     0.08700
H4005       H  0.57835790  0.83916100  0.39393870     0.27100
H4006       H  0.52882550  0.90408915  0.33823498     0.21900
H4007       H  0.58245625  0.00716495  0.44710622     0.27200
H4008       H  0.61435618  0.96957525  0.37272825     0.16000
C4009       C  0.88268895  0.59471022  0.20471892    -0.11200
C4010       C  0.89903523  0.60173806  0.22629583     0.15300
C4011       C  0.90187278  0.62006717  0.25066848     0.02200
C4012       C  0.88807192  0.63042399  0.25306720    -0.15600
C4013       C  0.87193361  0.62367088  0.23139558    -0.10400
C4014       C  0.86903316  0.60526637  0.20705469     0.08900
C4015       C  0.91325420  0.59010317  0.22233589     0.10000
S4016       S  0.92337697  0.63186787  0.27911621    -0.24700
H4017       H  0.89082429  0.64485189  0.27155703     0.20200
S4018       S  0.84764424  0.59379768  0.17871245    -0.30400
H4019       H  0.88035278  0.58064454  0.18599011     0.10500
C4020       C  0.90604216  0.57051660  0.23937640     0.03700
C4021       C  0.92046582  0.56054724  0.23492965    -0.12700
C4022       C  0.94192144  0.56956533  0.21363465    -0.08400
C4023       C  0.94930413  0.58955418  0.19695474     0.07200
C4024       C  0.93471208  0.59921101  0.20118409    -0.13500
S4025       S  0.87795370  0.55758838  0.26618700    -0.30400
H4026       H  0.91459155  0.54514368  0.24762279     0.11400
S4027       S  0.97795526  0.60465028  0.17094698    -0.27500
H4028       H  0.94056578  0.61451712  0.18831095     0.08700
H4029       H  0.82919133  0.59625708  0.19629328     0.27100
H4030       H  0.87952737  0.53943626  0.27570053     0.21900
H4031       H  0.99412585  0.60474490  0.18705738     0.27200
H4032       H  0.94127589  0.62800214  0.26282920     0.16000
C4033       C  0.93633312  0.82516941  0.26449420    -0.11200
C4034       C  0.91925264  0.83195377  0.26924333     0.15300
C4035       C  0.89208425  0.81257144  0.27932602     0.02200
C4036       C  0.88202619  0.78619233  0.28213286    -0.15600
C4037       C  0.89859940  0.77874295  0.27522440    -0.10400
C4038       C  0.92631805  0.79887656  0.26747129     0.08900
C4039       C  0.92918279  0.85758756  0.25938946     0.10000
S4040       S  0.86892907  0.81981545  0.28687790    -0.24700
H4041       H  0.86067869  0.77077395  0.28760839     0.20200
S4042       S  0.94929321  0.79138949  0.25884446    -0.30400
H4043       H  0.95723964  0.83997291  0.25685794     0.10500
C4044       C  0.94695813  0.88333436  0.27509852     0.03700
C4045       C  0.95640830  0.90700172  0.26420128    -0.12700
C4046       C  0.94873818  0.90551660  0.23754565    -0.08400
C4047       C  0.93166876  0.87955609  0.22137945     0.07200
C4048       C  0.92173898  0.85601193  0.23271059    -0.13500
S4049       S  0.95692659  0.88602201  0.30945708    -0.30400
H4050       H  0.96944312  0.92669332  0.27680812     0.11400
S4051       S  0.92316272  0.87500926  0.18540766    -0.27500
H4052       H  0.90870606  0.83624804  0.22018271     0.08700
H4053       H  0.93392833  0.76850666  0.27412252     0.27100
H4054       H  0.98042795  0.91337845  0.30909755     0.21900
H4055       H  0.94889160  0.89823357  0.17664765     0.27200
H4056       H  0.88849500  0.84784630  0.29573219     0.16000
C4057       C  0.65227670  0.57136209  0.18727639    -0.11200
C4058       C  0.66360318  0.57918778  0.21365927     0.15300
C4059       C  0.64679485  0.57424515  0.23947327     0.02200
C4060       C  0.61960518  0.56238339  0.23826838    -0.15600
C4061       C  0.60875740  0.55598498  0.21193265    -0.10400
C4062       C  0.62517395  0.55956941  0.18609870     0.08900
C4063       C  0.69323529  0.59394000  0.21349108     0.10000
S4064       S  0.65896603  0.58380608  0.27478452    -0.24700
H4065       H  0.60724840  0.55953124  0.25819506     0.20200
S4066       S  0.61265447  0.54905550  0.15082270    -0.30400
H4067       H  0.66474494  0.57459457  0.16735546     0.10500
C4068       C  0.70341333  0.58259723  0.22216866     0.03700
C4069       C  0.73141486  0.59860873  0.22434584    -0.12700
C4070       C  0.74971802  0.62574250  0.21775523    -0.08400
C4071       C  0.73952459  0.63658372  0.20784121     0.07200
C4072       C  0.71162879  0.62051922  0.20540423    -0.13500
S4073       S  0.68079934  0.54785409  0.23073850    -0.30400
H4074       H  0.73916892  0.59027923  0.23194628     0.11400
S4075       S  0.76072171  0.67144380  0.20025750    -0.27500
H4076       H  0.70403190  0.62935134  0.19854822     0.08700
H4077       H  0.58606389  0.52690378  0.15903087     0.27100
H4078       H  0.70082629  0.54681141  0.23554602     0.21900
H4079       H  0.77696103  0.68240089  0.22348511     0.27200
H4080       H  0.68574061  0.60631431  0.26769789     0.16000
C4081       C  0.86678894  0.57851300  0.48959443    -0.11200
C4082       C  0.88885507  0.58736734  0.46931525     0.15300
C4083       C  0.89680506  0.60677305  0.45139068     0.02200
C4084       C  0.88324802  0.61756314  0.45499007    -0.15600
C4085       C  0.86167821  0.60925736  0.47584818    -0.10400
C4086       C  0.85308875  0.58906203  0.49291880     0.08900
C4087       C  0.90303280  0.57597384  0.46765234     0.10000
S4088       S  0.92431796  0.61905976  0.42393987    -0.24700
H4089       H  0.88993793  0.63304702  0.44188485     0.20200
S4090       S  0.82563412  0.57429697  0.01296966    -0.30400
H4091       H  0.86027515  0.56333355  0.50308051     0.10500
C4092       C  0.93200215  0.59501825  0.97666858     0.03700
C4093       C  0.94145216  0.57995994  0.47592040    -0.12700
C4094       C  0.92877525  0.55292607  0.46349697    -0.08400
C4095       C  0.90260360  0.53704880  0.45375775     0.07200
C4096       C  0.89011066  0.54873552  0.45584596    -0.13500
S4097       S  0.94679879  0.62891987  0.99473145    -0.30400
H4098       H  0.96462388  0.59612713  0.98416560     0.11400
S4099       S  0.88396544  0.50173193  0.43872218    -0.27500
H4100       H  0.87013755  0.53651026  0.44814832     0.08700
H4101       H  0.81107262  0.57753394  0.99838503     0.27100
H4102       H  0.96758077  0.63283317  0.00647751     0.21900
H4103       H  0.89531596  0.49566317  0.45465503     0.27200
H4104       H  0.92368522  0.59644942  0.41956400     0.16000
C4105       C  0.92160529  0.80395984  0.98959959    -0.11200
C4106       C  0.90421682  0.81129574  0.48119275     0.15300
C4107       C  0.87719410  0.79082373  0.47335012     0.02200
C4108       C  0.86426315  0.76320989  0.47471844    -0.15600
C4109       C  0.87764452  0.75538001  0.48347081    -0.10400
C4110       C  0.90888412  0.77633594  0.99005084     0.08900
C4111       C  0.91959980  0.84081225  0.47934275     0.10000
S4112       S  0.85801109  0.79807227  0.46085340    -0.24700
H4113       H  0.84343858  0.74765824  0.46927606     0.20200
S4114       S  0.92881337  0.76831458  0.99823960    -0.30400
H4115       H  0.94247094  0.81944282  0.99495731     0.10500
C4116       C  0.91876612  0.85812094  0.50236241     0.03700
C4117       C  0.93241542  0.88553684  0.49884043    -0.12700
C4118       C  0.94720914  0.89603357  0.47287670    -0.08400
C4119       C  0.94909993  0.87896141  0.45046323     0.07200
C4120       C  0.93544998  0.85169425  0.45398030    -0.13500
S4121       S  0.89973751  0.84502614  0.53586282    -0.30400
H4122       H  0.93090890  0.89859764  0.51595579     0.11400
S4123       S  0.96913180  0.89100888  0.41710371    -0.27500
H4124       H  0.93670389  0.83865214  0.43653679     0.08700
H4125       H  0.91611579  0.74376183  0.97953319     0.27100
H4126       H  0.90677776  0.86989328  0.55064110     0.21900
H4127       H  0.95918586  0.90374511  0.41219950     0.27200
H4128       H  0.87544089  0.82657249  0.46727554     0.16000
C4129       C  0.64801258  0.58290796  0.48552158    -0.11200
C4130       C  0.64978859  0.58353464  0.51469933     0.15300
C4131       C  0.62452453  0.56302621  0.03180648     0.02200
C4132       C  0.59978998  0.55099493  0.02078960    -0.15600
C4133       C  0.59973760  0.55929735  0.49344437    -0.10400
C4134       C  0.62335141  0.57065912  0.47467285     0.08900
C4135       C  0.67641712  0.59516093  0.52392884     0.10000
S4136       S  0.62346575  0.55879638  0.06853609    -0.24700
H4137       H  0.58133498  0.53989481  0.03457723     0.20200
S4138       S  0.62306645  0.56880230  0.43632466    -0.30400
H4139       H  0.66592617  0.59133320  0.47085203     0.10500
C4140       C  0.68237405  0.57820167  0.52670686     0.03700
C4141       C  0.70913972  0.58988766  0.53021471    -0.12700
C4142       C  0.73016752  0.61817903  0.53085738    -0.08400
C4143       C  0.72283144  0.63340951  0.02973444     0.07200
C4144       C  0.69564305  0.62004868  0.02619845    -0.13500
S4145       S  0.65643730  0.54151004  0.52280509    -0.30400
H4146       H  0.71423429  0.57684491  0.52995195     0.11400
S4147       S  0.74663788  0.66993771  0.02975967    -0.27500
H4148       H  0.68986007  0.63202233  0.02390649     0.08700
H4149       H  0.59742675  0.54291017  0.43352514     0.27100
H4150       H  0.67280154  0.53523191  0.52646496     0.21900
H4151       H  0.76558582  0.67410542  0.04544011     0.27200
H4152       H  0.65024620  0.58196331  0.07377793     0.16000
C4153       C  0.79145043  0.65354991  0.40465511    -0.11200
C4154       C  0.79518108  0.63735552  0.38380177     0.15300
C4155       C  0.79776181  0.61955704  0.39213495     0.02200
C4156       C  0.80159229  0.62210699  0.42081371    -0.15600
C4157       C  0.80394715  0.64279704  0.44082009    -0.10400
C4158       C  0.79481360  0.65592462  0.43335653     0.08900
C4159       C  0.80401719  0.64551406  0.35487397     0.10000
S4160       S  0.79855844  0.59501298  0.36676015    -0.24700
H4161       H  0.80283222  0.60792580  0.42712695     0.20200
S4162       S  0.78791018  0.67714761  0.45713802    -0.30400
H4163       H  0.78842171  0.66653206  0.39821848     0.10500
C4164       C  0.78819006  0.64624850  0.33937345     0.03700
C4165       C  0.79969956  0.65909007  0.31447223    -0.12700
C4166       C  0.82539690  0.66806834  0.30283475    -0.08400
C4167       C  0.84232836  0.67030958  0.32029055     0.07200
C4168       C  0.83118499  0.65842163  0.34587015    -0.13500
S4169       S  0.75344456  0.63094694  0.35114334    -0.30400
H4170       H  0.78877970  0.66277898  0.30480410     0.11400
S4171       S  0.87826055  0.68936421  0.31125131    -0.27500
H4172       H  0.84381177  0.65987349  0.35948404     0.08700
H4173       H  0.79417368  0.67776554  0.48391036     0.27100
H4174       H  0.74647719  0.63168894  0.32525862     0.21900
H4175       H  0.88415493  0.68478300  0.33519356     0.27200
H4176       H  0.78637159  0.59465007  0.34490278     0.16000
C4177       C  0.88518947  0.70068101  0.07813876    -0.11200
C4178       C  0.86778206  0.68794717  0.10164000     0.15300
C4179       C  0.84055048  0.66491306  0.09807795     0.02200
C4180       C  0.83013906  0.65808679  0.07184316    -0.15600
C4181       C  0.84668730  0.67295863  0.04868479    -0.10400
C4182       C  0.87537880  0.69213739  0.05107168     0.08900
C4183       C  0.87653667  0.70106688  0.13028532     0.10000
S4184       S  0.81791487  0.64423743  0.12657704    -0.24700
H4185       H  0.80920031  0.64045505  0.06947695     0.20200
S4186       S  0.90159973  0.70654412  0.02203163    -0.30400
H4187       H  0.90646486  0.71739589  0.08098913     0.10500
C4188       C  0.88997327  0.69622819  0.14420224     0.03700
C4189       C  0.88548680  0.69634536  0.17393794    -0.12700
C4190       C  0.86519488  0.69745089  0.18838239    -0.08400
C4191       C  0.85762770  0.70940419  0.17530349     0.07200
C4192       C  0.86387772  0.71134091  0.14602828    -0.13500
S4193       S  0.90911176  0.68597227  0.12401960    -0.30400
H4194       H  0.89654016  0.69395833  0.18539557     0.11400
S4195       S  0.83830201  0.72050193  0.19242108    -0.27500
H4196       H  0.85529573  0.71695362  0.13482271     0.08700
H4197       H  0.88714567  0.68887431  0.99819135     0.27100
H4198       H  0.91478251  0.68097604  0.14782426     0.21900
H4199       H  0.84112075  0.72223816  0.22138088     0.27200
H4200       H  0.83776641  0.64802258  0.14012611     0.16000
C4201       C  0.81643407  0.65115360  0.96774159     0.30200
C4202       C  0.83245299  0.66565412  0.52327084     0.30200
C4203       C  0.82992457  0.63923267  0.97260421    -0.06000
C4204       C  0.83848115  0.68195887  0.97649078    -0.06800
C4205       C  0.79466973  0.64177368  0.99263007    -0.06700
C4206       C  0.83788057  0.64745914  0.50339971    -0.06100
C4207       C  0.84401393  0.68909168  0.50590079    -0.06800
C4208       C  0.80147047  0.64852254  0.52175175    -0.06700
C4209       C  0.84973529  0.63660224  0.50656918    -0.32100
N4210       N  0.85024254  0.62193526  0.97617284     0.14400
C4211       C  0.83881888  0.62488746  0.95758347    -0.32100
H4212       H  0.83781570  0.61765672  0.93483858     0.16300
C4213       C  0.85974344  0.71722741  0.51106531    -0.31100
N4214       N  0.86311155  0.72701186  0.48651221     0.13100
C4215       C  0.85217350  0.70612287  0.96477885    -0.31100
C4216       C  0.77842729  0.64096106  0.53964038    -0.31400
N4217       N  0.75724002  0.62763074  0.52286196     0.13600
H4218       H  0.77736921  0.64606649  0.56274604     0.16300
C4219       C  0.76763463  0.62901954  0.99425625    -0.31400
H4220       H  0.75540390  0.62126789  0.97628772     0.16300
H4221       H  0.85055062  0.70809282  0.94339869     0.16300
H4222       H  0.85794160  0.63893929  0.52590184     0.16300
H4223       H  0.86792883  0.72969503  0.53130823     0.16300
C4224       C  0.85405430  0.69046416  0.72069378     0.30200
C4225       C  0.83434447  0.67538631  0.77452949     0.30200
C4226       C  0.85893777  0.67199371  0.72924531    -0.06000
C4227       C  0.86531931  0.71359678  0.74534146    -0.06800
C4228       C  0.82292955  0.67260654  0.72610544    -0.06700
C4229       C  0.84880103  0.66438869  0.75697019    -0.06100
C4230       C  0.85477584  0.70626334  0.77270641    -0.06800
C4231       C  0.81294612  0.66476555  0.75361416    -0.06700
C4232       C  0.85327731  0.64681180  0.76047031    -0.32100
N4233       N  0.86590283  0.64357849  0.73590655     0.14400
C4234       C  0.86879877  0.65817722  0.71647833    -0.32100
H4235       H  0.87712280  0.65808997  0.69459172     0.16300
C4236       C  0.86433888  0.73022404  0.79093043    -0.31100
N4237       N  0.88121689  0.75159391  0.77496319     0.13100
C4238       C  0.88202413  0.74156697  0.74717175    -0.31100
C4239       C  0.78504683  0.64674612  0.75358498    -0.31400
N4240       N  0.77781458  0.64497766  0.72781713     0.13600
H4241       H  0.77053446  0.63509468  0.77066286     0.16300
C4242       C  0.80067496  0.66006398  0.71040096    -0.31400
H4243       H  0.80103048  0.66209037  0.68828199     0.16300
H4244       H  0.89226532  0.75366778  0.72926386     0.16300
H4245       H  0.84773697  0.63697617  0.77946529     0.16300
H4246       H  0.85855965  0.73188072  0.81364415     0.16300
O4247       O  0.53547109  0.98013801  0.89884484    -0.75100
O4248       O  0.53228623  0.97780502  0.94713145    -0.54100
C4249       C  0.53987502  0.97455382  0.92057111     0.78600
O4250       O  0.54394830  0.59248598  0.92836252    -0.59700
O4251       O  0.00677911  0.57347691  0.90381599    -0.52800
C4252       C  0.52932043  0.59381746  0.91512895     0.70600
O4253       O  0.57285591  0.55858240  0.96888337    -0.74300
O4254       O  0.55130545  0.51864761  0.98748946    -0.54900
C4255       C  0.57252477  0.54301481  0.98254021     0.76600
O4256       O  0.00595040  0.50336946  0.83976502    -0.59400
O4257       O  0.98568263  0.52275757  0.85194115    -0.52600
C4258       C  0.99594888  0.51360098  0.83217753     0.73200
Zr4259     Zr  0.51271918  0.99606535  0.88707396     2.54700
O4260       O  0.55520479  0.51835274  0.86010478    -0.80000
O4261       O  0.99358107  0.95174755  0.85464880    -0.93400
Zr4262     Zr  0.54192727  0.55788018  0.94486926     2.64700
O4263       O  0.58370149  0.57976191  0.91418851    -0.98400
O4264       O  0.56085935  0.59789437  0.98076775    -0.80400
O4265       O  0.53212082  0.51519588  0.93163188    -0.83800
O4266       O  0.52082385  0.53583880  0.90001099    -2.18500
O4267       O  0.91049975  0.95089076  0.90999532    -0.67200
O4268       O  0.93270051  0.49290144  0.89043462    -0.51800
C4269       C  0.90880746  0.96539156  0.89715766     0.71600
O4270       O  0.97875434  0.51502419  0.53997029    -0.60100
O4271       O  0.50015892  0.99810025  0.52832661    -0.52100
C4272       C  0.99187060  0.00736825  0.54657082     0.73400
O4273       O  0.95376541  0.54266260  0.98075954    -0.71500
O4274       O  0.95492791  0.54189093  0.93191471    -0.50200
C4275       C  0.94861325  0.54681149  0.95836345     0.74800
O4276       O  0.94339084  0.92264101  0.95118747    -0.66800
O4277       O  0.97975624  0.94407805  0.97752816    -0.54000
C4278       C  0.95774775  0.92249509  0.96638981     0.73100
Zr4279     Zr  0.94378760  0.95607997  0.93418556     2.77500
O4280       O  0.90404278  0.93374231  0.96786515    -0.97600
O4281       O  0.92458440  0.91547859  0.89922491    -0.78400
Zr4282     Zr  0.97363325  0.52312410  0.99201251     2.70100
O4283       O  0.92987462  0.99926459  0.51802227    -0.79600
O4284       O  0.99107962  0.56459971  0.52230662    -0.98700
Zr4285     Zr  0.50912334  0.99535506  0.97306666     2.21500
Zr4286     Zr  0.97830451  0.52481605  0.90701282     2.11100
O4287       O  0.95054576  0.99745828  0.94652380    -2.47400
O4288       O  0.96453201  0.98028592  0.97882428    -0.79400
O4289       O  0.96854526  0.98125107  0.89358133    -0.71600
O4290       O  0.51504029  0.53218931  0.98446438    -2.32600
O4291       O  0.98736490  0.96895013  0.92590045    -2.28800
O4292       O  0.00025136  0.54834979  0.95170400    -0.73400
H4293       H  0.53168953  0.54753551  0.88493378     0.78600
H4294       H  0.52501214  0.54437706  0.50130809     0.79700
H4295       H  0.93305081  0.99299175  0.94931301     0.81900
H4296       H  0.98564558  0.95264237  0.92113149     0.79500
H4297       H  0.56161797  0.59229621  0.99816945     0.42600
H4298       H  0.49966901  0.57875280  0.50992012     0.41500
H4299       H  0.93313830  0.01134523  0.53630227     0.41200
H4300       H  0.89269662  0.91420770  0.95993166     0.39100
H4301       H  0.93812051  0.92171788  0.88255959     0.42300
H4302       H  0.98886682  0.93883459  0.86758822     0.37100
H4303       H  0.56714039  0.51998451  0.87222817     0.43200
H4304       H  0.58255853  0.56439782  0.90275153     0.39600
H4305       H  0.91055736  0.93448259  0.98558202     0.44500
H4306       H  0.00915216  0.95494059  0.84206305     0.43200
H4307       H  0.58173997  0.58760621  0.90007669     0.43400
H4308       H  0.97545584  0.56274170  0.53304112     0.43700
O4309       O  0.52810154  0.97472549  0.64983423    -0.75100
O4310       O  0.52818560  0.97830216  0.69891659    -0.54100
C4311       C  0.53322546  0.97134372  0.67283333     0.78600
O4312       O  0.54627274  0.59582712  0.66478404    -0.59700
O4313       O  0.00426988  0.57041068  0.64226892    -0.52800
C4314       C  0.53125315  0.59477062  0.64923509     0.70600
O4315       O  0.57941212  0.56396703  0.70122374    -0.74300
O4316       O  0.56096978  0.53070723  0.73000800    -0.54900
C4317       C  0.58127963  0.55104746  0.71657067     0.76600
O4318       O  0.50169418  0.49837461  0.58986133    -0.59400
O4319       O  0.97995481  0.51644757  0.60112688    -0.52600
C4320       C  0.99020359  0.50675626  0.58199589     0.73200
Zr4321     Zr  0.50787934  0.99356172  0.63789527     2.54700
O4322       O  0.55254737  0.51515667  0.60834242    -0.80000
O4323       O  0.98614493  0.94670587  0.61042912    -0.93400
Zr4324     Zr  0.54525426  0.56466344  0.68817839     2.64700
O4325       O  0.58613252  0.58836679  0.65602295    -0.98400
O4326       O  0.56634754  0.60455533  0.72428414    -0.80400
O4327       O  0.53478495  0.52157180  0.68020855    -0.83800
O4328       O  0.52051642  0.53680686  0.64639773    -2.18500
O4329       O  0.90961657  0.95612894  0.66904799    -0.67200
O4330       O  0.92760329  0.49271013  0.64715211    -0.51800
C4331       C  0.90804899  0.96975804  0.65446534     0.71600
O4332       O  0.98523053  0.52376947  0.79062987    -0.60100
O4333       O  0.50659483  0.00689400  0.77876913    -0.52100
C4334       C  0.99496034  0.01384113  0.79755441     0.73400
O4335       O  0.95811771  0.55062790  0.73075936    -0.71500
O4336       O  0.95760533  0.54782442  0.68181872    -0.50200
C4337       C  0.95324360  0.55500072  0.70830206     0.74800
O4338       O  0.94219652  0.93063980  0.71717340    -0.66800
O4339       O  0.98182781  0.95373799  0.73798867    -0.54000
C4340       C  0.95770167  0.93207689  0.73237210     0.73100
Zr4341     Zr  0.94393065  0.96061912  0.69050488     2.77500
O4342       O  0.90192930  0.93868062  0.72098973    -0.97600
O4343       O  0.92573767  0.91899492  0.65734481    -0.78400
Zr4344     Zr  0.97724302  0.53082188  0.74320296     2.70100
O4345       O  0.93593695  0.01245945  0.77020945    -0.79600
O4346       O  0.99742342  0.57386981  0.77430411    -0.98700
Zr4347     Zr  0.51056031  0.00097007  0.72352107     2.21500
Zr4348     Zr  0.97548716  0.52467709  0.65668378     2.11100
O4349       O  0.95374124  0.00356687  0.69895545    -2.47400
O4350       O  0.96784795  0.98823948  0.73276890    -0.79400
O4351       O  0.96704220  0.98149415  0.64693716    -0.71600
O4352       O  0.52273179  0.54448604  0.73226093    -2.32600
O4353       O  0.98640321  0.97074071  0.68099126    -2.28800
O4354       O  0.00003180  0.55233565  0.69940593    -0.73400
H4355       H  0.53004279  0.54632673  0.62952631     0.78600
H4356       H  0.53399604  0.55570906  0.74827059     0.79700
H4357       H  0.93678436  0.00028847  0.70245596     0.81900
H4358       H  0.98345832  0.95379041  0.67871005     0.79500
H4359       H  0.58023987  0.62019467  0.71318736     0.42600
H4360       H  0.51642480  0.59186614  0.75567194     0.41500
H4361       H  0.92547802  0.99243548  0.76613117     0.41200
H4362       H  0.90644766  0.93808299  0.73942401     0.39100
H4363       H  0.92927235  0.92462445  0.63803508     0.42300
H4364       H  0.97701659  0.93406441  0.62534610     0.37100
H4365       H  0.56584297  0.53241561  0.62015807     0.43200
H4366       H  0.58008826  0.58644820  0.63733131     0.39600
H4367       H  0.89891790  0.95227124  0.72576111     0.44500
H4368       H  0.00059922  0.94587312  0.60114148     0.43200
H4369       H  0.59647753  0.60797871  0.66335927     0.43400
H4370       H  0.98197146  0.57328411  0.78291465     0.43700
C4371       C  0.64614054  0.84006078  0.86087615     0.30200
C4372       C  0.65712683  0.86344196  0.91614864     0.30200
C4373       C  0.63913445  0.85936888  0.87216131    -0.06000
C4374       C  0.63251173  0.82052310  0.88354964    -0.06800
C4375       C  0.67650488  0.85930801  0.86680831    -0.06700
C4376       C  0.64513086  0.87125407  0.90019419    -0.06100
C4377       C  0.63847632  0.83204072  0.91154363    -0.06800
C4378       C  0.68206699  0.87088283  0.89561085    -0.06700
C4379       C  0.63762002  0.88743214  0.90723551    -0.32100
N4380       N  0.62655497  0.88538268  0.88433135     0.14400
C4381       C  0.62783578  0.86878827  0.86245848    -0.32100
H4382       H  0.62075076  0.86378454  0.84132332     0.16300
C4383       C  0.62551578  0.81067257  0.92796023    -0.31100
N4384       N  0.61116657  0.78675526  0.91031256     0.13100
C4385       C  0.61575142  0.79267493  0.88305300    -0.31100
C4386       C  0.70950097  0.88602584  0.89711669    -0.31400
N4387       N  0.72092013  0.88575594  0.87026498     0.13600
H4388       H  0.72074443  0.89580596  0.91615824     0.16300
C4389       C  0.70113319  0.86973808  0.85149430    -0.31400
H4390       H  0.70461769  0.86627941  0.82848555     0.16300
H4391       H  0.60805774  0.77776277  0.86410731     0.16300
H4392       H  0.63912300  0.89905233  0.92791660     0.16300
H4393       H  0.62632773  0.81233725  0.95092500     0.16300
C4394       C  0.64903530  0.85610388  0.61377061     0.30200
C4395       C  0.63889396  0.84364060  0.66839439     0.30200
C4396       C  0.63622910  0.86685278  0.63617906    -0.06000
C4397       C  0.63044454  0.82526270  0.61689739    -0.06800
C4398       C  0.67426572  0.86848916  0.62930403    -0.06700
C4399       C  0.63042892  0.85979974  0.66365966    -0.06100
C4400       C  0.62607890  0.81939273  0.64479054    -0.06800
C4401       C  0.66914643  0.86142971  0.65697175    -0.06700
C4402       C  0.62068916  0.87239451  0.68080036    -0.32100
N4403       N  0.62158163  0.88790673  0.66446409     0.14400
C4404       C  0.63186575  0.88542266  0.63773764    -0.32100
H4405       H  0.63600615  0.89683979  0.62088938     0.16300
C4406       C  0.61451755  0.79239812  0.64344055    -0.31100
N4407       N  0.60975804  0.78086127  0.61585649     0.13100
C4408       C  0.61986966  0.80074283  0.59903335    -0.31100
C4409       C  0.69393170  0.87289224  0.66629202    -0.31400
N4410       N  0.71384263  0.88809642  0.64605268     0.13600
H4411       H  0.69731986  0.86984832  0.68594856     0.16300
C4412       C  0.70195536  0.88573097  0.62358930    -0.31400
H4413       H  0.71281903  0.89579086  0.60437789     0.16300
H4414       H  0.62056250  0.79789168  0.57572469     0.16300
H4415       H  0.61395165  0.87079332  0.70342220     0.16300
H4416       H  0.61038960  0.78178006  0.66117447     0.16300
C4417       C  0.64091755  0.80762211  0.78318108    -0.11200
C4418       C  0.62118743  0.80821990  0.77656968     0.15300
C4419       C  0.60363543  0.80850304  0.79855865     0.02200
C4420       C  0.61043889  0.81470412  0.82665547    -0.15600
C4421       C  0.63578658  0.82375964  0.83214622    -0.10400
C4422       C  0.64810000  0.81485117  0.81147980     0.08900
C4423       C  0.62506030  0.81769514  0.74956357     0.10000
S4424       S  0.57587791  0.80625575  0.79112443    -0.24700
H4425       H  0.59758060  0.81567488  0.84398777     0.20200
S4426       S  0.67075753  0.81000185  0.81933983    -0.30400
H4427       H  0.65266240  0.80463138  0.76605934     0.10500
C4428       C  0.64766745  0.84477798  0.74467164     0.03700
C4429       C  0.65056454  0.85370759  0.71904459    -0.12700
C4430       C  0.63145493  0.83616868  0.69854170    -0.08400
C4431       C  0.60606628  0.81183378  0.70696845     0.07200
C4432       C  0.60415851  0.80166988  0.73108041    -0.13500
S4433       S  0.67249454  0.86831747  0.77110012    -0.30400
H4434       H  0.66772526  0.87436563  0.71498788     0.11400
S4435       S  0.57484319  0.79382824  0.69015695    -0.27500
H4436       H  0.58564131  0.78199908  0.73653347     0.08700
H4437       H  0.66292219  0.80804538  0.84883653     0.27100
H4438       H  0.68869685  0.89121727  0.75575202     0.21900
H4439       H  0.58219606  0.81589975  0.67794203     0.27200
H4440       H  0.56772200  0.81026949  0.81988565     0.16000
C4441       C  0.63789951  0.86921792  0.99550961    -0.11200
C4442       C  0.66334955  0.88735279  0.00662008     0.15300
C4443       C  0.68652917  0.90286849  0.98820507     0.02200
C4444       C  0.68397197  0.89668345  0.95858889    -0.15600
C4445       C  0.65887278  0.87473666  0.94737224    -0.10400
C4446       C  0.63508420  0.86356373  0.96631139     0.08900
C4447       C  0.66544600  0.88697708  0.53414545     0.10000
S4448       S  0.71962331  0.92973609  0.00122560    -0.24700
H4449       H  0.70158444  0.90937883  0.94468681     0.20200
S4450       S  0.60003992  0.84064861  0.95695172    -0.30400
H4451       H  0.61979478  0.85753150  0.00963527     0.10500
C4452       C  0.64534098  0.88352724  0.55483203     0.03700
C4453       C  0.63680675  0.86749403  0.57624321    -0.12700
C4454       C  0.65307852  0.86239385  0.58333212    -0.08400
C4455       C  0.67302064  0.86509066  0.56223812     0.07200
C4456       C  0.67888593  0.87739133  0.53783041    -0.13500
S4457       S  0.62920454  0.89782386  0.55277098    -0.30400
H4458       H  0.61785593  0.86001943  0.58836136     0.11400
S4459       S  0.68886207  0.85007122  0.56195042    -0.27500
H4460       H  0.69259673  0.87769613  0.52062710     0.08700
H4461       H  0.60191636  0.83734760  0.92694564     0.27100
H4462       H  0.61188347  0.88841831  0.57788853     0.21900
H4463       H  0.67323121  0.83436004  0.58471918     0.27200
H4464       H  0.71128131  0.93675105  0.52807439     0.16000
C4465       C  0.55773463  0.70582698  0.61741582    -0.11200
C4466       C  0.57413740  0.69830606  0.61423280     0.15300
C4467       C  0.60181087  0.71745141  0.60534016     0.02200
C4468       C  0.61286290  0.74422350  0.60256002    -0.15600
C4469       C  0.59684802  0.75232004  0.60786983    -0.10400
C4470       C  0.56878090  0.73248159  0.61416210     0.08900
C4471       C  0.56267217  0.67171901  0.62340406     0.10000
S4472       S  0.62449937  0.70962543  0.59952712    -0.24700
H4473       H  0.63447546  0.75942648  0.59831652     0.20200
S4474       S  0.54666210  0.74101639  0.62110091    -0.30400
H4475       H  0.53647265  0.69129884  0.62400133     0.10500
C4476       C  0.56857443  0.67064574  0.64991915     0.03700
C4477       C  0.55843898  0.64544098  0.65743794    -0.12700
C4478       C  0.54216433  0.62091474  0.63919996    -0.08400
C4479       C  0.53626571  0.62215388  0.61260445     0.07200
C4480       C  0.54615685  0.64733828  0.60528357    -0.13500
S4481       S  0.58854322  0.70139509  0.67457559    -0.30400
H4482       H  0.56286892  0.64478860  0.67794280     0.11400
S4483       S  0.51758004  0.59271401  0.58630365    -0.27500
H4484       H  0.54166845  0.64806939  0.58483818     0.08700
H4485       H  0.56297008  0.76363101  0.60535424     0.27100
H4486       H  0.58702619  0.68895495  0.69676447     0.21900
H4487       H  0.52953215  0.58169600  0.59058848     0.27200
H4488       H  0.60486664  0.68128133  0.59256409     0.16000
C4489       C  0.83229630  0.91984591  0.64373096    -0.11200
C4490       C  0.82636174  0.93766235  0.64676159     0.15300
C4491       C  0.84788394  0.96614798  0.65019515     0.02200
C4492       C  0.87439574  0.97602355  0.65133324    -0.15600
C4493       C  0.88033153  0.95819849  0.64871893    -0.10400
C4494       C  0.85883834  0.92967297  0.64414763     0.08900
C4495       C  0.79759470  0.92577809  0.64616723     0.10000
S4496       S  0.84286789  0.99099232  0.65349503    -0.24700
H4497       H  0.88827307  0.49473521  0.65112116     0.20200
S4498       S  0.86388289  0.90463358  0.63790684    -0.30400
H4499       H  0.81604366  0.89797948  0.64075610     0.10500
C4500       C  0.78339195  0.91065407  0.62103889     0.03700
C4501       C  0.75601333  0.89865254  0.62157614    -0.12700
C4502       C  0.74235443  0.90187062  0.64649183    -0.08400
C4503       C  0.75704160  0.91828609  0.67122513     0.07200
C4504       C  0.78416645  0.92945949  0.67100897    -0.13500
S4505       S  0.80033851  0.90725694  0.58789645    -0.30400
H4506       H  0.74500325  0.88637488  0.60252070     0.11400
S4507       S  0.74292282  0.92711718  0.70300729    -0.27500
H4508       H  0.79506074  0.94153952  0.69022074     0.08700
H4509       H  0.88924529  0.92106116  0.62274038     0.27100
H4510       H  0.77863132  0.89334073  0.57038535     0.21900
H4511       H  0.72626049  0.92732724  0.68812685     0.27200
H4512       H  0.82117876  0.97520364  0.63562517     0.16000
C4513       C  0.61171253  0.93917936  0.66606974    -0.11200
C4514       C  0.58398143  0.92381695  0.67394855     0.15300
C4515       C  0.56940696  0.89730793  0.68174762     0.02200
C4516       C  0.58270890  0.88655225  0.68046764    -0.15600
C4517       C  0.61030188  0.90169999  0.67177547    -0.10400
C4518       C  0.62502315  0.92861866  0.66527024     0.08900
C4519       C  0.57109083  0.93606017  0.67315986     0.10000
S4520       S  0.53378992  0.87589219  0.69261524    -0.24700
H4521       H  0.57123201  0.86574662  0.68501273     0.20200
S4522       S  0.66078831  0.95036979  0.65532811    -0.30400
H4523       H  0.62306359  0.95955905  0.66020323     0.10500
C4524       C  0.57885014  0.95997207  0.69136996     0.03700
C4525       C  0.56691391  0.97145075  0.68950002    -0.12700
C4526       C  0.54680931  0.95936931  0.67032336    -0.08400
C4527       C  0.53903323  0.93540561  0.65201891     0.07200
C4528       C  0.55159518  0.92430151  0.65327614    -0.13500
S4529       S  0.60299186  0.97529776  0.71812226    -0.30400
H4530       H  0.57284727  0.98974537  0.70366807     0.11400
S4531       S  0.02038983  0.92088757  0.62837158    -0.27500
H4532       H  0.54570223  0.90599733  0.63913580     0.08700
H4533       H  0.66633902  0.93742152  0.66929189     0.27100
H4534       H  0.61236415  0.50439206  0.72777107     0.21900
H4535       H  0.00171304  0.92202695  0.64749774     0.27200
H4536       H  0.53313586  0.89728410  0.70480491     0.16000
C4537       C  0.55779136  0.71111812  0.90996985    -0.11200
C4538       C  0.57059479  0.70493059  0.92309973     0.15300
C4539       C  0.59544032  0.72655155  0.93548236     0.02200
C4540       C  0.60780253  0.75360038  0.93253333    -0.15600
C4541       C  0.59567333  0.75962596  0.91794437    -0.10400
C4542       C  0.56978602  0.73815348  0.90776012     0.08900
C4543       C  0.55916171  0.67599181  0.92054986     0.10000
S4544       S  0.61274661  0.72089760  0.95443591    -0.24700
H4545       H  0.62756376  0.77000400  0.94054458     0.20200
S4546       S  0.55128474  0.74397450  0.89131368    -0.30400
H4547       H  0.53866232  0.69471674  0.90059654     0.10500
C4548       C  0.53306507  0.65567128  0.93239057     0.03700
C4549       C  0.52312988  0.62852451  0.92857432    -0.12700
C4550       C  0.53886518  0.62135243  0.91353188    -0.08400
C4551       C  0.56470493  0.64158440  0.90119119     0.07200
C4552       C  0.57448582  0.66857678  0.90471529    -0.13500
S4553       S  0.51309058  0.66443725  0.95397245    -0.30400
H4554       H  0.50356884  0.61302104  0.93858044     0.11400
S4555       S  0.58609545  0.63428121  0.88066744    -0.27500
H4556       H  0.59427006  0.68400420  0.89500675     0.08700
H4557       H  0.56329242  0.77036522  0.90581728     0.27100
H4558       H  0.98815763  0.63839569  0.94515239     0.21900
H4559       H  0.56509834  0.60675464  0.87148128     0.27200
H4560       H  0.58929572  0.69637626  0.96434083     0.16000
C4561       C  0.83213152  0.92194461  0.89467742    -0.11200
C4562       C  0.83047365  0.93100605  0.87152661     0.15300
C4563       C  0.85455956  0.95097529  0.85636670     0.02200
C4564       C  0.87966782  0.96161747  0.86488049    -0.15600
C4565       C  0.88150529  0.95260832  0.88818375    -0.10400
C4566       C  0.85708585  0.93242613  0.90332482     0.08900
C4567       C  0.80323401  0.92029751  0.86541762     0.10000
S4568       S  0.85451591  0.96359455  0.82596465    -0.24700
H4569       H  0.89794144  0.97702064  0.85307133     0.20200
S4570       S  0.85689510  0.92105198  0.93516616    -0.30400
H4571       H  0.81358648  0.90699101  0.90652024     0.10500
C4572       C  0.78352199  0.89269241  0.85463076     0.03700
C4573       C  0.75665734  0.88205874  0.85412128    -0.12700
C4574       C  0.74912731  0.89851492  0.86413902    -0.08400
C4575       C  0.76933583  0.92666550  0.87251515     0.07200
C4576       C  0.79604185  0.93719675  0.87343225    -0.13500
S4577       S  0.79245388  0.87080579  0.84242359    -0.30400
H4578       H  0.74112295  0.86052806  0.84761158     0.11400
S4579       S  0.76192024  0.94986257  0.88289068    -0.27500
H4580       H  0.81113061  0.95849967  0.88135327     0.08700
H4581       H  0.83363317  0.38153218  0.89733484     0.27100
H4582       H  0.76719404  0.84776396  0.83235057     0.21900
H4583       H  0.73854530  0.93414074  0.86757992     0.27200
H4584       H  0.82953943  0.93938330  0.81662419     0.16000
C4585       C  0.57556227  0.89554167  0.88460866    -0.11200
C4586       C  0.59121279  0.92395713  0.89235688     0.15300
C4587       C  0.61911334  0.93947523  0.89565076     0.02200
C4588       C  0.63028599  0.92633880  0.89207250    -0.15600
C4589       C  0.61459243  0.89801140  0.88470594    -0.10400
C4590       C  0.58687598  0.88246785  0.88092129     0.08900
C4591       C  0.57763332  0.93648841  0.89928781     0.10000
S4592       S  0.64165720  0.97608489  0.90471748    -0.24700
H4593       H  0.65148742  0.93827934  0.89530985     0.20200
S4594       S  0.56453213  0.84575236  0.87376606    -0.30400
H4595       H  0.55406769  0.88324854  0.88273432     0.10500
C4596       C  0.56282141  0.93454880  0.87915049     0.03700
C4597       C  0.55097226  0.94722822  0.88673398    -0.12700
C4598       C  0.55376029  0.96232895  0.91392928    -0.08400
C4599       C  0.56891876  0.96443103  0.93390750     0.07200
C4600       C  0.57981223  0.95087275  0.92671146    -0.13500
S4601       S  0.55977505  0.91695817  0.84326652    -0.30400
H4602       H  0.53945753  0.94536124  0.87120559     0.11400
S4603       S  0.57688512  0.98555141  0.96810273    -0.27500
H4604       H  0.59094937  0.95232570  0.94242330     0.08700
H4605       H  0.57680730  0.84201332  0.89140073     0.27100
H4606       H  0.53949278  0.91631757  0.83546216     0.21900
H4607       H  0.58289252  0.00750591  0.95671409     0.27200
H4608       H  0.62808748  0.98093068  0.89074040     0.16000
C4609       C  0.88295536  0.59666271  0.70692909    -0.11200
C4610       C  0.90242688  0.60566517  0.72558356     0.15300
C4611       C  0.90970256  0.62744303  0.74759095     0.02200
C4612       C  0.89683320  0.63893291  0.75091205    -0.15600
C4613       C  0.87729000  0.62987504  0.73239162    -0.10400
C4614       C  0.87035618  0.60845684  0.71010459     0.08900
C4615       C  0.91494652  0.59221194  0.72132122     0.10000
S4616       S  0.93544197  0.64203103  0.77203184    -0.24700
H4617       H  0.90259600  0.65567075  0.76770906     0.20200
S4618       S  0.84519191  0.59493199  0.68551088    -0.30400
H4619       H  0.87733351  0.58011013  0.68991426     0.10500
C4620       C  0.90669744  0.57237442  0.73865065     0.03700
C4621       C  0.91990405  0.56106976  0.73451527    -0.12700
C4622       C  0.94123310  0.56904376  0.71324424    -0.08400
C4623       C  0.94970003  0.58937759  0.69633375     0.07200
C4624       C  0.93624248  0.60027319  0.70019390    -0.13500
S4625       S  0.87908989  0.56121891  0.76579435    -0.30400
H4626       H  0.91326715  0.54557331  0.74755266     0.11400
S4627       S  0.97860226  0.60364102  0.67069355    -0.27500
H4628       H  0.94300094  0.61586200  0.68718889     0.08700
H4629       H  0.82980883  0.60072372  0.70480804     0.27100
H4630       H  0.87791998  0.54076537  0.77409384     0.21900
H4631       H  0.99380683  0.60266694  0.68714829     0.27200
H4632       H  0.94770263  0.63088343  0.75721268     0.16000
C4633       C  0.93145925  0.82737426  0.78054619    -0.11200
C4634       C  0.91465506  0.83356356  0.77872169     0.15300
C4635       C  0.88636998  0.81307559  0.78233574     0.02200
C4636       C  0.87547811  0.78626514  0.78428885    -0.15600
C4637       C  0.89227418  0.77954112  0.78334842    -0.10400
C4638       C  0.92050546  0.80061109  0.78302865     0.08900
C4639       C  0.92655311  0.85937659  0.76752641     0.10000
S4640       S  0.86327263  0.81961158  0.78223305    -0.24700
H4641       H  0.85380771  0.77013115  0.78431994     0.20200
S4642       S  0.94347083  0.79390966  0.78313644    -0.30400
H4643       H  0.95319530  0.84302274  0.77806822     0.10500
C4644       C  0.94077108  0.88487551  0.78464240     0.03700
C4645       C  0.95100200  0.90840820  0.77270800    -0.12700
C4646       C  0.94720056  0.90689242  0.74390253    -0.08400
C4647       C  0.93353164  0.88129083  0.72667567     0.07200
C4648       C  0.92313813  0.85793844  0.73872817    -0.13500
S4649       S  0.94527453  0.88738066  0.82180548    -0.30400
H4650       H  0.96174616  0.92798687  0.78595853     0.11400
S4651       S  0.92985700  0.87717424  0.68878598    -0.27500
H4652       H  0.91257899  0.83840098  0.72536858     0.08700
H4653       H  0.92430943  0.76814150  0.79313487     0.27100
H4654       H  0.94879608  0.91165269  0.83022162     0.21900
H4655       H  0.95559028  0.90187273  0.68312319     0.27200
H4656       H  0.88089939  0.84727240  0.79361209     0.16000
C4657       C  0.65343972  0.57808380  0.69399975    -0.11200
C4658       C  0.66408533  0.58509056  0.72058471     0.15300
C4659       C  0.64652168  0.57840108  0.74593844     0.02200
C4660       C  0.61929143  0.56628311  0.74423609    -0.15600
C4661       C  0.60895102  0.56027257  0.71764207    -0.10400
C4662       C  0.62621195  0.56539442  0.69220120     0.08900
C4663       C  0.69376531  0.60054960  0.72107137     0.10000
S4664       S  0.65771594  0.58511844  0.78108661    -0.24700
H4665       H  0.60631344  0.56220898  0.76386805     0.20200
S4666       S  0.61464326  0.55580483  0.65657125    -0.30400
H4667       H  0.66655201  0.58268865  0.67439938     0.10500
C4668       C  0.70595409  0.58844514  0.70940272     0.03700
C4669       C  0.73410835  0.60400965  0.71003570    -0.12700
C4670       C  0.75037701  0.63142327  0.72224769    -0.08400
C4671       C  0.73810572  0.64347918  0.73380867     0.07200
C4672       C  0.71013645  0.62806346  0.73294794    -0.13500
S4673       S  0.68537629  0.55268874  0.69543009    -0.30400
H4674       H  0.74342184  0.59458811  0.70215739     0.11400
S4675       S  0.75685580  0.67805834  0.75139568    -0.27500
H4676       H  0.70097288  0.63752453  0.74191700     0.08700
H4677       H  0.58855650  0.53208053  0.66351317     0.27100
H4678       H  0.70647930  0.55125012  0.68875864     0.21900
H4679       H  0.78230534  0.68786794  0.73793205     0.27200
H4680       H  0.67840226  0.58332805  0.77151024     0.16000
C4681       C  0.86977810  0.58017538  0.98484740    -0.11200
C4682       C  0.89217242  0.58987327  0.96490364     0.15300
C4683       C  0.89892259  0.60836691  0.94634403     0.02200
C4684       C  0.88397163  0.61765956  0.94935569    -0.15600
C4685       C  0.86218635  0.60866679  0.97013401    -0.10400
C4686       C  0.85465255  0.58904874  0.98741074     0.08900
C4687       C  0.90717864  0.57943335  0.96388088     0.10000
S4688       S  0.92626267  0.62120910  0.91856298    -0.24700
H4689       H  0.88987743  0.63268229  0.93603214     0.20200
S4690       S  0.82456663  0.57569852  0.51907663    -0.30400
H4691       H  0.86400953  0.56548674  0.99860798     0.10500
C4692       C  0.92884035  0.59162524  0.47813098     0.03700
C4693       C  0.94503209  0.58384851  0.97554290    -0.12700
C4694       C  0.93321494  0.55704116  0.96269613    -0.08400
C4695       C  0.90770491  0.54111617  0.95133093     0.07200
C4696       C  0.89522396  0.55252061  0.95164653    -0.13500
S4697       S  0.94560156  0.62634690  0.49463836    -0.30400
H4698       H  0.96148814  0.59206780  0.48335251     0.11400
S4699       S  0.88971160  0.50578470  0.93676763    -0.27500
H4700       H  0.87575859  0.54014171  0.94265669     0.08700
H4701       H  0.81045828  0.57958849  0.50462501     0.27100
H4702       H  0.97066302  0.63297744  0.49648473     0.21900
H4703       H  0.89910108  0.49982140  0.95565665     0.27200
H4704       H  0.93347601  0.60526210  0.92053380     0.16000
C4705       C  0.91768096  0.80340067  0.48941952    -0.11200
C4706       C  0.90812496  0.81176915  0.98113877     0.15300
C4707       C  0.88125286  0.79132994  0.97311154     0.02200
C4708       C  0.86849050  0.76375235  0.97381787    -0.15600
C4709       C  0.88180138  0.75590578  0.98264096    -0.10400
C4710       C  0.90490968  0.77584110  0.49018509     0.08900
C4711       C  0.92318139  0.84100597  0.97826084     0.10000
S4712       S  0.86216932  0.79919676  0.96186632    -0.24700
H4713       H  0.84774616  0.74826040  0.96810395     0.20200
S4714       S  0.92505869  0.76798581  0.49804068    -0.30400
H4715       H  0.93860028  0.81885190  0.49460966     0.10500
C4716       C  0.92894646  0.86055847  0.00239297     0.03700
C4717       C  0.94155716  0.88755974  0.99819109    -0.12700
C4718       C  0.94820748  0.89523542  0.97030771    -0.08400
C4719       C  0.94315146  0.87570901  0.94628649     0.07200
C4720       C  0.93073656  0.84897161  0.95051354    -0.13500
S4721       S  0.91880193  0.85069913  0.03838363    -0.30400
H4722       H  0.94523080  0.90242397  0.01655927     0.11400
S4723       S  0.95201765  0.88364810  0.90961596    -0.27500
H4724       H  0.92657083  0.83407337  0.93195223     0.08700
H4725       H  0.91196131  0.74313850  0.47981387     0.27100
H4726       H  0.92666569  0.87595666  0.05286817     0.21900
H4727       H  0.97643994  0.90993524  0.91589260     0.27200
H4728       H  0.87423261  0.82432682  0.97939204     0.16000
C4729       C  0.64764945  0.58051388  0.98605817    -0.11200
C4730       C  0.64892659  0.57812845  0.01424994     0.15300
C4731       C  0.62615747  0.57188886  0.53351877     0.02200
C4732       C  0.60139042  0.55967589  0.52265293    -0.15600
C4733       C  0.59871420  0.55402815  0.99272206    -0.10400
C4734       C  0.62306534  0.56840778  0.97504388     0.08900
C4735       C  0.67616325  0.59140976  0.02374597     0.10000
S4736       S  0.62627539  0.57202418  0.57147952    -0.24700
H4737       H  0.58339705  0.55095587  0.53722594     0.20200
S4738       S  0.62412639  0.57095012  0.93765008    -0.30400
H4739       H  0.66606571  0.59150309  0.97218197     0.10500
C4740       C  0.68409947  0.57611511  0.02662644     0.03700
C4741       C  0.71139255  0.58958826  0.03020397    -0.12700
C4742       C  0.73117394  0.61806205  0.03069475    -0.08400
C4743       C  0.72373867  0.63517832  0.52993243     0.07200
C4744       C  0.69710361  0.62356081  0.52630219    -0.13500
S4745       S  0.66034306  0.53926829  0.02223663    -0.30400
H4746       H  0.71789347  0.57772488  0.02976207     0.11400
S4747       S  0.74927230  0.67159001  0.52991979    -0.27500
H4748       H  0.69268944  0.63667646  0.52397183     0.08700
H4749       H  0.59924331  0.54483951  0.93204275     0.27100
H4750       H  0.67643477  0.53553546  0.03289826     0.21900
H4751       H  0.76667210  0.67449160  0.54691824     0.27200
H4752       H  0.65340866  0.59538825  0.57452997     0.16000
C4753       C  0.78938348  0.65506532  0.90623007    -0.11200
C4754       C  0.79006191  0.63695981  0.88512058     0.15300
C4755       C  0.79165857  0.61828225  0.89292739     0.02200
C4756       C  0.79880779  0.62227715  0.92044611    -0.15600
C4757       C  0.80418056  0.64453424  0.94008137    -0.10400
C4758       C  0.79558641  0.65869042  0.93403205     0.08900
C4759       C  0.80005055  0.64559688  0.85647479     0.10000
S4760       S  0.78791770  0.59126638  0.86747023    -0.24700
H4761       H  0.80024484  0.60798527  0.92615356     0.20200
S4762       S  0.79287997  0.68279730  0.95838648    -0.30400
H4763       H  0.78710109  0.66880198  0.90030512     0.10500
C4764       C  0.78627172  0.64893862  0.84087395     0.03700
C4765       C  0.79927910  0.66187419  0.81611903    -0.12700
C4766       C  0.82425972  0.66850235  0.80498086    -0.08400
C4767       C  0.83972714  0.66946466  0.82321762     0.07200
C4768       C  0.82705565  0.65700327  0.84831538    -0.13500
S4769       S  0.75250068  0.63716710  0.85247055    -0.30400
H4770       H  0.79014605  0.66738375  0.80597317     0.11400
S4771       S  0.87596609  0.68920452  0.81686048    -0.27500
H4772       H  0.83855771  0.65734681  0.86250691     0.08700
H4773       H  0.79757233  0.68116052  0.98495218     0.27100
H4774       H  0.74754970  0.64102006  0.82718671     0.21900
H4775       H  0.87945148  0.68000000  0.83851071     0.27200
H4776       H  0.77436774  0.59151281  0.84778260     0.16000
C4777       C  0.88296153  0.70405340  0.58160692    -0.11200
C4778       C  0.86556373  0.69115592  0.60505278     0.15300
C4779       C  0.83862835  0.66746534  0.60127350     0.02200
C4780       C  0.82840277  0.65986806  0.57469746    -0.15600
C4781       C  0.84492138  0.67460266  0.55141595    -0.10400
C4782       C  0.87347033  0.69477968  0.55430288     0.08900
C4783       C  0.87431507  0.70413038  0.63376730     0.10000
S4784       S  0.81626456  0.64649948  0.62968229    -0.24700
H4785       H  0.80771505  0.64167313  0.57214866     0.20200
S4786       S  0.89995035  0.70953635  0.52558764    -0.30400
H4787       H  0.90406560  0.72131002  0.58464277     0.10500
C4788       C  0.88932568  0.70068318  0.64687378     0.03700
C4789       C  0.88592749  0.70114214  0.67665935    -0.12700
C4790       C  0.86554272  0.70161368  0.69211871    -0.08400
C4791       C  0.85643044  0.71248209  0.67969587     0.07200
C4792       C  0.86116050  0.71360465  0.65022328    -0.13500
S4793       S  0.90963258  0.69220576  0.62574675    -0.30400
H4794       H  0.89807681  0.69970119  0.68742571     0.11400
S4795       S  0.83725017  0.72351714  0.69793159    -0.27500
H4796       H  0.85141132  0.71829365  0.63960987     0.08700
H4797       H  0.88618827  0.69103704  0.50177994     0.27100
H4798       H  0.91474600  0.68574218  0.64872142     0.21900
H4799       H  0.83587514  0.72023003  0.72644316     0.27200
H4800       H  0.83653543  0.65170534  0.64397527     0.16000
loop_ 
_geom_bond_atom_site_label_1 
_geom_bond_atom_site_label_2 
_geom_bond_distance 
_geom_bond_site_symmetry_2 
_ccdc_geom_bond_type 
C1            C3   1.562       .  S
C1            C5   1.529       .  S
C1            C4   1.547       .  S
C1          C557   1.507       .  S
C2            C6   1.531   1_554  S
C2            C8   1.557       .  S
C2            C7   1.534       .  S
C2          C581   1.507       .  S
C3           C11   1.402       .  A
C3          C606   1.389       .  A
C4           C15   1.387       .  A
C4          C607   1.381       .  A
C5           C19   1.371       .  A
C5          C608   1.385       .  A
C6            C9   1.373       .  A
C6          C603   1.388       .  A
C7           C13   1.382       .  A
C7          C604   1.383   1_554  A
C8           C16   1.399       .  A
C8          C605   1.387   1_554  A
C9           H22   1.083   1_556  S
C9          N610   1.349       .  A
N10          C11   1.367       .  A
N10         C609   1.349       .  A
N10         C485   1.445       .  S
C11          H12   1.080       .  S
C13          H23   1.082       .  S
C13          N14   1.357   1_554  A
N14         C615   1.358       .  A
N14        C1109   1.442       .  S
C15          H21   1.082       .  S
C15         N614   1.359       .  A
C16          H18   1.082       .  S
C16          N17   1.365       .  A
N17         C619   1.347   1_554  A
N17        C1142   1.439       .  S
C19          H20   1.083       .  S
C19         N617   1.348       .  A
C24          C26   1.554       .  S
C24          C28   1.548       .  S
C24          C27   1.523       .  S
C24         C590   1.506       .  S
C25          C29   1.546       .  S
C25          C31   1.551       .  S
C25          C30   1.530       .  S
C25         C566   1.505       .  S
C26          C34   1.390       .  A
C26          C29   1.394       .  A
C27          C38   1.372       .  A
C27          C30   1.375       .  A
C28          C42   1.392       .  A
C28          C31   1.388       .  A
C29          C32   1.384       .  A
C30          C36   1.386       .  A
C31          C39   1.385       .  A
C32          H45   1.082       .  S
C32          N33   1.355       .  A
N33          C34   1.357       .  A
N33         C413   1.442       .  S
C34          H35   1.080       .  S
C36          H46   1.082       .  S
C36          N37   1.360       .  A
N37          C38   1.354       .  A
N37         C437   1.435       .  S
C38          H44   1.083       .  S
C39          H41   1.081       .  S
C39          N40   1.353       .  A
N40          C42   1.360       .  A
N40         C470   1.445       .  S
C42          H43   1.082       .  S
O47         Zr59   2.461       .  S
O47          C49   1.294       .  A
O48         Zr85   2.460       .  S
O48          C49   1.296       .  A
C49         C398   1.492       .  S
O50         Zr62   2.432       .  S
O50          C52   1.287       .  A
O51         Zr86   2.432       .  S
O51        C2452   1.288       .  A
C52        O2451   1.288       .  A
C52         C350   1.471       .  S
O53         Zr62   2.452       .  S
O53          C55   1.290       .  A
O54       Zr1285   2.428   1_545  S
O54          C55   1.288       .  A
C55         C533   1.483       .  S
O56       Zr3659   2.583   1_545  S
O56          C58   1.315       .  A
O57         Zr86   2.566       .  S
O57          C58   1.313       .  A
C58        C1334   1.606       .  S
Zr59       O3656   2.589       .  S
Zr59       O1260   2.434       .  S
Zr59       O2461   2.429   1_455  S
Zr59       O1265   2.414       .  S
Zr59       O1266   2.362       .  S
Zr59       O2489   2.368   1_455  S
Zr59       O2491   2.417   1_455  S
O60       Zr1259   2.435   1_545  S
O60         H103   0.990       .  S
O61       Zr2459   2.436       .  S
O61         H102   0.990       .  S
O61         H106   0.990       .  S
Zr62         O63   2.436       .  S
Zr62         O64   2.436       .  S
Zr62         O66   2.396       .  S
Zr62         O65   2.352       .  S
Zr62         O90   2.390       .  S
Zr62       O2492   2.364   1_455  S
O63         H104   0.990       .  S
O63         H107   0.989       .  S
O64          H97   0.990       .  S
O65       Zr1259   2.413   1_545  S
O65       Zr1285   2.425   1_545  S
O66       Zr1259   2.360   1_545  S
O66       Zr2486   2.383   1_455  S
O66          H93   0.965       .  S
O67         Zr79   2.429       .  S
O67          C69   1.283       .  A
O68         Zr86   2.449   1_565  S
O68        C1269   1.292       .  A
C69        O1268   1.291       .  A
C69         C365   1.502       .  S
O70        Zr682   2.576   1_554  S
O70        C1272   1.314       .  A
O71        Zr685   2.602   1_554  S
O71        C2472   1.322   1_455  A
C72        O1270   1.311       .  A
C72        O2471   1.317       .  A
C72        C1320   1.599       .  S
O73         Zr82   2.481       .  S
O73          C75   1.297       .  A
O74         Zr86   2.421       .  S
O74          C75   1.288       .  A
C75         C494   1.488       .  S
O76         Zr79   2.429       .  S
O76          C78   1.285       .  A
O77       Zr2485   2.461       .  S
O77          C78   1.293       .  A
C78         C518   1.479       .  S
Zr79         O80   2.437       .  S
Zr79         O81   2.436       .  S
Zr79         O87   2.359       .  S
Zr79         O88   2.396       .  S
Zr79         O91   2.356       .  S
Zr79         O89   2.386       .  S
O80         H100   0.990       .  S
O80         H105   0.990       .  S
O81         H101   0.990       .  S
Zr82        O670   2.559       .  S
Zr82       O1883   2.435   1_545  S
Zr82        O684   2.434       .  S
Zr82         O92   2.400       .  S
Zr82       O1288   2.384   1_545  S
Zr82       O1287   2.405   1_545  S
Zr82       O2490   2.374       .  S
O83       Zr1882   2.435   1_554  S
O83          H99   0.990       .  S
O84        Zr682   2.433   1_554  S
O84         H108   0.990       .  S
O84        H2498   0.990       .  S
Zr85       O1254   2.431       .  S
Zr85        O671   2.593   1_455  S
Zr85       O2477   2.445   1_455  S
Zr85       O1265   2.423       .  S
Zr85       O2488   2.383   1_455  S
Zr85       O1290   2.379       .  S
Zr85       O2491   2.429   1_455  S
Zr86         O92   2.419       .  S
Zr86       O2466   2.383       .  S
Zr86       O1287   2.422   1_545  S
Zr86       O1289   2.374   1_545  S
O87       Zr1282   2.418       .  S
O87       Zr1286   2.423       .  S
O87          H95   0.966       .  S
O88       Zr1282   2.376       .  S
O88       Zr2485   2.376       .  S
O89       Zr2459   2.363       .  S
O89       Zr1286   2.369       .  S
O90       Zr2482   2.367   1_455  S
O90       Zr1285   2.381   1_545  S
O90         H694   0.967       .  S
O91       Zr2459   2.417       .  S
O91       Zr2485   2.426       .  S
O91          H96   0.965       .  S
O92       Zr2462   2.368       .  S
H94         O690   0.967   1_554  S
H98        O2484   0.990       .  S
O109       Zr121   2.478       .  S
O109        C111   1.297       .  A
O110       Zr147   2.409       .  S
O110        C111   1.287       .  A
C111        C326   1.480       .  S
O112       Zr124   2.453       .  S
O112        C114   1.290       .  A
O113       Zr148   2.439       .  S
O113       C2514   1.289       .  A
C114       O2513   1.293       .  A
C114        C278   1.501       .  S
O115       Zr124   2.446       .  S
O115        C117   1.289       .  A
O116      Zr1347   2.446   1_545  S
O116        C117   1.291       .  A
C117        C461   1.490       .  S
O118      Zr1321   2.559       .  S
O118       C2520   1.309   1_465  A
O119       Zr148   2.566       .  S
O119        C120   1.313       .  A
C120       O2518   1.314       .  A
C120       C1272   1.603       .  S
Zr121      O1318   2.570       .  S
Zr121      O1322   2.435       .  S
Zr121      O2523   2.435   1_455  S
Zr121      O1327   2.401       .  S
Zr121      O1328   2.380       .  S
Zr121      O2551   2.372   1_455  S
Zr121      O2553   2.413   1_455  S
O122      Zr1321   2.435   1_545  S
O122        H165   0.990       .  S
O123      Zr2521   2.436       .  S
O123        H164   0.990       .  S
O123        H168   0.990       .  S
Zr124       O125   2.439       .  S
Zr124       O126   2.435       .  S
Zr124       O128   2.392       .  S
Zr124       O127   2.352       .  S
Zr124       O152   2.402       .  S
Zr124      O2554   2.362       .  S
O125        H166   0.990       .  S
O125        H169   0.990       .  S
O126        H159   0.990       .  S
O127      Zr1321   2.396   1_545  S
O127      Zr1347   2.408   1_545  S
O128      Zr1321   2.380   1_545  S
O128      Zr2548   2.381   1_455  S
O128        H155   0.966       .  S
O129       Zr141   2.447       .  S
O129        C131   1.289       .  A
O130       Zr148   2.432   1_565  S
O130       C1331   1.288       .  A
C131       O1330   1.290       .  A
C131        C293   1.488       .  S
O132       Zr144   2.588       .  S
O132       C1334   1.316       .  A
O133       Zr147   2.559       .  S
O133       C2534   1.311   1_455  A
C134       O1332   1.316       .  A
C134       O2533   1.313       .  A
C134       C1258   1.609       .  S
O135       Zr144   2.484       .  S
O135        C137   1.299       .  A
O136       Zr148   2.432       .  S
O136        C137   1.290       .  A
C137        C422   1.500       .  S
O138       Zr141   2.447       .  S
O138        C140   1.289       .  A
O139      Zr2547   2.428       .  S
O139        C140   1.288       .  A
C140        C446   1.490       .  S
Zr141       O142   2.435       .  S
Zr141       O143   2.433       .  S
Zr141       O149   2.364       .  S
Zr141       O150   2.388       .  S
Zr141       O153   2.365       .  S
Zr141       O151   2.391       .  S
O142        H162   0.990       .  S
O142        H167   0.990       .  S
O143        H163   0.990       .  S
Zr144       O146   2.434       .  S
Zr144      O1345   2.435       .  S
Zr144       O154   2.418       .  S
Zr144      O1350   2.369   1_545  S
Zr144      O1349   2.409       .  S
Zr144      O2552   2.379       .  S
O145      Zr1344   2.437       .  S
O145        H161   0.990       .  S
O146        H170   0.990       .  S
O146       H2560   0.990       .  S
Zr147      O1316   2.453       .  S
Zr147      O2539   2.429   1_455  S
Zr147      O1327   2.413       .  S
Zr147      O2550   2.374   1_455  S
Zr147      O1352   2.383       .  S
Zr147      O2553   2.426   1_455  S
Zr148       O154   2.420       .  S
Zr148      O2528   2.380       .  S
Zr148      O1349   2.427       .  S
Zr148      O1351   2.383   1_545  S
O149      Zr1344   2.415       .  S
O149      Zr1348   2.425       .  S
O149        H157   0.966       .  S
O150      Zr1344   2.364       .  S
O150      Zr2547   2.372       .  S
O151      Zr2521   2.377       .  S
O151      Zr1348   2.384       .  S
O152      Zr2544   2.378   1_455  S
O152      Zr1347   2.383   1_545  S
O152        H156   0.966       .  S
O153      Zr2521   2.410       .  S
O153      Zr2547   2.429       .  S
O153        H158   0.965       .  S
O154      Zr2524   2.359       .  S
H160       O2546   0.990       .  S
C171        C173   1.552       .  S
C171        C175   1.548       .  S
C171        C174   1.518       .  S
C171        C221   1.497       .  S
C172        C176   1.532       .  S
C172        C178   1.554       .  S
C172        C177   1.541       .  S
C172        C245   1.498       .  S
C173        C181   1.392       .  A
C173        C176   1.378       .  A
C174        C185   1.370       .  A
C174        C177   1.371       .  A
C175        C189   1.385       .  A
C175        C178   1.400       .  A
C176        C179   1.382       .  A
C177        C183   1.391       .  A
C178        C186   1.380       .  A
C179        H192   1.082       .  S
C179        N180   1.354       .  A
N180        C181   1.359       .  A
N180        C389   1.442       .  S
C181        H182   1.082       .  S
C183        H193   1.082       .  S
C183        N184   1.361       .  A
N184        C185   1.351       .  A
N184        C341   1.438       .  S
C185        H191   1.083       .  S
C186        H188   1.080       .  S
C186        N187   1.357       .  A
N187        C189   1.359       .  A
N187        C374   1.444       .  S
C189        H190   1.081       .  S
C194        C196   1.551       .  S
C194        C198   1.539       .  S
C194        C197   1.545       .  S
C194        C254   1.507       .  S
C195        C199   1.523       .  S
C195        C201   1.551       .  S
C195        C200   1.531       .  S
C195        C230   1.496       .  S
C196        C204   1.382       .  A
C196        C199   1.373       .  A
C197        C208   1.398       .  A
C197        C200   1.387       .  A
C198        C212   1.377       .  A
C198        C201   1.394       .  A
C199        C202   1.384       .  A
C200        C206   1.378       .  A
C201        C209   1.383       .  A
C202        H215   1.082       .  S
C202        N203   1.359       .  A
N203        C204   1.353       .  A
N203        C317   1.441       .  S
C204        H205   1.080       .  S
C206        H216   1.082       .  S
C206        N207   1.345       .  A
N207        C208   1.361       .  A
N207        C269   1.441       .  S
C208        H214   1.082       .  S
C209        H211   1.081       .  S
C209        N210   1.359       .  A
N210        C212   1.355       .  A
N210        C302   1.441       .  S
C212        H213   1.081       .  S
C217        C218   1.401       .  A
C217        C222   1.391       .  A
C217        H227   1.084       .  S
C218        C219   1.405       .  A
C218        C223   1.446       .  S
C219        C220   1.378       .  A
C219        S224   1.809       .  S
C220        C221   1.403       .  A
C220        H225   1.082       .  S
C221        C222   1.412       .  A
C222        S226   1.803       .  S
C223        C228   1.414       .  A
C223        C232   1.392       .  A
S224        H240   1.407       .  S
S226        H237   1.403       .  S
C228        C229   1.388       .  A
C228        S233   1.811       .  S
C229        C230   1.396       .  A
C229        H234   1.081       .  S
C230        C231   1.416       .  A
C231        C232   1.379       .  A
C231        S235   1.809       .  S
C232        H236   1.084       .  S
S233        H238   1.407       .  S
S235        H239   1.403       .  S
C241        C242   1.397       .  A
C241        C246   1.373       .  A
C241        H251   1.084       .  S
C242        C243   1.401       .  A
C242        C847   1.456       .  S
C243        C244   1.392       .  A
C243        S248   1.802       .  S
C244        C245   1.408       .  A
C244        H249   1.075       .  S
C245        C246   1.423       .  A
C246        S250   1.822       .  S
C247        C252   1.402       .  A
C247        C256   1.405       .  A
C247        C842   1.457       .  S
S248        H864   1.407       .  S
S250        H261   1.392       .  S
C252        C253   1.379       .  A
C252        S257   1.812       .  S
C253        C254   1.403       .  A
C253        H258   1.082       .  S
C254        C255   1.415       .  A
C255        C256   1.393       .  A
C255        S259   1.808       .  S
C256        H260   1.084       .  S
S257        H262   1.407       .  S
S259        H263   1.399       .  S
H264        S848   1.407   1_554  S
C265        C266   1.404       .  A
C265        C270   1.406       .  A
C265        H275   1.084       .  S
C266        C267   1.418       .  A
C266        C271   1.497       .  S
C267        C268   1.407       .  A
C267        S272   1.805       .  S
C268        C269   1.403       .  A
C268        H273   1.083       .  S
C269        C270   1.413       .  A
C270        S274   1.802       .  S
C271        C276   1.412       .  A
C271        C280   1.404       .  A
S272        H288   1.405       .  S
S274        H285   1.404       .  S
C276        C277   1.409       .  A
C276        S281   1.807       .  S
C277        C278   1.409       .  A
C277        H282   1.083       .  S
C278        C279   1.418       .  A
C279        C280   1.409       .  A
C279        S283   1.799       .  S
C280        H284   1.084       .  S
S281        H286   1.406       .  S
S283        H287   1.407       .  S
C289        C290   1.405       .  A
C289        C294   1.402       .  A
C289        H299   1.084       .  S
C290        C291   1.415       .  A
C290        C295   1.491       .  S
C291        C292   1.402       .  A
C291        S296   1.804       .  S
C292        C293   1.405       .  A
C292       H1497   1.084       .  S
C293        C294   1.416       .  A
C294        S298   1.803       .  S
C295        C300   1.413       .  A
C295        C304   1.406       .  A
S296        H312   1.407       .  S
H297       C1492   1.084   1_545  S
S298        H309   1.408       .  S
C300        C301   1.404       .  A
C300        S305   1.807       .  S
C301        C302   1.405       .  A
C301        H306   1.082       .  S
C302        C303   1.412       .  A
C303        C304   1.401       .  A
C303        S307   1.802       .  S
C304        H308   1.084       .  S
S305        H310   1.407       .  S
S307        H311   1.407       .  S
C313        C314   1.402       .  A
C313        C318   1.400       .  A
C313        H323   1.084       .  S
C314        C315   1.413       .  A
C314        C319   1.483       .  S
C315        C316   1.401       .  A
C315        S320   1.803       .  S
C316        C317   1.403       .  A
C316        H321   1.083       .  S
C317        C318   1.416       .  A
C318        S322   1.802       .  S
C319        C324   1.407       .  A
C319        C328   1.405       .  A
S320        H336   1.406       .  S
S322        H333   1.407       .  S
C324        C325   1.400       .  A
C324        S329   1.805       .  S
C325        C326   1.406       .  A
C325        H330   1.083       .  S
C326        C327   1.413       .  A
C327        C328   1.404       .  A
C327       S2731   1.801       .  S
C328        H332   1.084       .  S
S329       H1534   1.407       .  S
S331       C2727   1.800       .  S
S331        H335   1.408       .  S
H334       S1529   1.404   1_545  S
C337        C338   1.402       .  A
C337        C342   1.397       .  A
C337        H347   1.084       .  S
C338        C339   1.416       .  A
C338        C343   1.486       .  S
C339        C340   1.402       .  A
C339        S344   1.803       .  S
C340        C341   1.401       .  A
C340        H345   1.083       .  S
C341        C342   1.414       .  A
C342        S346   1.803       .  S
C343        C348   1.413       .  A
C343        C352   1.404       .  A
S344        H360   1.407       .  S
S346        H357   1.408       .  S
C348        C349   1.404       .  A
C348        S353   1.806       .  S
C349        C350   1.403       .  A
C349        H354   1.083       .  S
C350        C351   1.411       .  A
C351        C352   1.398       .  A
C351        S355   1.804       .  S
C352        H356   1.084       .  S
S353       H2758   1.406   1_455  S
S355        H359   1.407       .  S
H358       S2753   1.408       .  S
C361        C362   1.399       .  A
C361        C366   1.402       .  A
C361        H371   1.083       .  S
C362        C363   1.412       .  A
C362        C367   1.490       .  S
C363        C364   1.403       .  A
C363        S368   1.803       .  S
C364        C365   1.410       .  A
C364        H369   1.083       .  S
C365        C366   1.427       .  A
C366        S370   1.812       .  S
C367        C372   1.414       .  A
C367        C376   1.402       .  A
S368        H384   1.406       .  S
S370       H1581   1.407       .  S
C372        C373   1.408       .  A
C372        S377   1.807       .  S
C373        C374   1.405       .  A
C373        H378   1.082       .  S
C374        C375   1.415       .  A
C375        C376   1.398       .  A
C375        S379   1.802       .  S
C376        H380   1.084       .  S
S377        H382   1.407       .  S
S379        H383   1.407       .  S
H381       S1570   1.407       .  S
C385        C386   1.406       .  A
C385        C390   1.406       .  A
C385        H395   1.084       .  S
C386        C387   1.417       .  A
C386        C391   1.496       .  S
C387        C388   1.405       .  A
C387        S392   1.804       .  S
C388        C389   1.401       .  A
C388        H393   1.083       .  S
C389        C390   1.414       .  A
C390        S394   1.802       .  S
C391        C396   1.412       .  A
C391        C400   1.405       .  A
S392        H408   1.406       .  S
S394        H405   1.403       .  S
C396        C397   1.410       .  A
C396        S401   1.806       .  S
C397        C398   1.409       .  A
C397        H402   1.083       .  S
C398        C399   1.415       .  A
C399        C400   1.404       .  A
C399        S403   1.801       .  S
C400        H404   1.084       .  S
S401        H406   1.407       .  S
S403        H407   1.405       .  S
C409        C410   1.406       .  A
C409        C414   1.406       .  A
C409        H419   1.084       .  S
C410        C411   1.416       .  A
C410        C415   1.493       .  S
C411        C412   1.404       .  A
C411        S416   1.805       .  S
C412        C413   1.403       .  A
C412        H417   1.084       .  S
C413        C414   1.412       .  A
C414        S418   1.802       .  S
C415        C420   1.410       .  A
C415        C424   1.401       .  A
S416        H432   1.405       .  S
S418        H429   1.406       .  S
C420        C421   1.409       .  A
C420        S425   1.805       .  S
C421        C422   1.409       .  A
C421        H426   1.082       .  S
C422        C423   1.423       .  A
C423        C424   1.404       .  A
C423        S427   1.803       .  S
C424        H428   1.084       .  S
S425        H430   1.407       .  S
S427        H431   1.407       .  S
C433        C434   1.402       .  A
C433        C438   1.398       .  A
C433        H443   1.084       .  S
C434        C435   1.414       .  A
C434        C439   1.483       .  S
C435        C436   1.402       .  A
C435        S440   1.803       .  S
C436        C437   1.402       .  A
C436        H441   1.083       .  S
C437        C438   1.410       .  A
C438        S442   1.801       .  S
C439        C444   1.408       .  A
C439        C448   1.400       .  A
S440        H456   1.407       .  S
S442        H453   1.407       .  S
C444        C445   1.407       .  A
C444        S449   1.805       .  S
C445        C446   1.410       .  A
C445        H450   1.083       .  S
C446        C447   1.418       .  A
C447        C448   1.397       .  A
C447        S451   1.802       .  S
C448        H452   1.084       .  S
S449        H454   1.406       .  S
S451        H455   1.409       .  S
C457        C458   1.403       .  A
C457        C462   1.402       .  A
C457        H467   1.084       .  S
C458        C459   1.418       .  A
C458        C463   1.497       .  S
C459        C460   1.406       .  A
C459        S464   1.802       .  S
C460        C461   1.404       .  A
C460        H465   1.084       .  S
C461        C462   1.419       .  A
C462        S466   1.804       .  S
C463        C468   1.417       .  A
C463        C472   1.403       .  A
S464        H480   1.407       .  S
S466        H477   1.407       .  S
C468        C469   1.414       .  A
C468        S473   1.806       .  S
C469        C470   1.405       .  A
C469        H474   1.082       .  S
C470        C471   1.414       .  A
C471        C472   1.399       .  A
C471        S475   1.803       .  S
C472        H476   1.084       .  S
S473        H478   1.407       .  S
S475        H479   1.406       .  S
C481        C482   1.400       .  A
C481        C486   1.399       .  A
C481        H491   1.084       .  S
C482        C483   1.415       .  A
C482        C487   1.486       .  S
C483        C484   1.408       .  A
C483        S488   1.804       .  S
C484        C485   1.405       .  A
C484        H489   1.083       .  S
C485        C486   1.417       .  A
C486       S1090   1.803       .  S
C487        C496   1.398       .  A
C487       C1092   1.412       .  A
S488        H504   1.406       .  S
S490       C1086   1.803       .  S
S490        H501   1.404       .  S
C492       C1087   1.417       .  A
C492       C1093   1.415       .  A
C492        S497   1.806   1_556  S
C493        C494   1.406       .  A
C493       C1092   1.410       .  A
C493       H1098   1.083       .  S
C494        C495   1.418       .  A
C495        C496   1.397       .  A
C495        S499   1.800       .  S
C496        H500   1.084       .  S
S497        H502   1.407       .  S
H498       C1093   1.083       .  S
S499        H503   1.407       .  S
C505        C510   1.400       .  A
C505       C1106   1.401       .  A
C505        H515   1.084       .  S
C506        C507   1.417       .  A
C506       C1105   1.404       .  A
C506        C511   1.491       .  S
C507        C508   1.404       .  A
C507        S512   1.804       .  S
C508        C509   1.403       .  A
C508        H513   1.083       .  S
C509       C1110   1.412       .  A
C509        N614   1.441       .  S
C510       C1109   1.412       .  A
C510        S514   1.797       .  S
C511        C516   1.414       .  A
C511        C520   1.403       .  A
S512        H528   1.405       .  S
S514        H525   1.407       .  S
C516        C517   1.410       .  A
C516        S521   1.806       .  S
C517        C518   1.404       .  A
C517        H522   1.083       .  S
C518        C519   1.412       .  A
C519        C520   1.401       .  A
C519        S523   1.802       .  S
C520        H524   1.084       .  S
S521        H526   1.407       .  S
S523        H527   1.405       .  S
C529        C530   1.404       .  A
C529        C534   1.399       .  A
C529        H539   1.084       .  S
C530       C1131   1.414       .  A
C530        C535   1.487       .  S
C531        C532   1.406       .  A
C531       C1130   1.415       .  A
C531        S536   1.806       .  S
C532       C1133   1.408   1_554  A
C532        H537   1.084       .  S
C533        C534   1.415       .  A
C533       C1132   1.407       .  A
C534        S538   1.804       .  S
C535        C540   1.411       .  A
C535       C1144   1.402       .  A
S536        H552   1.404       .  S
S538        H549   1.405       .  S
C540        C541   1.407       .  A
C540        S545   1.806       .  S
C541        C542   1.403       .  A
C541        H546   1.082       .  S
C542       C1143   1.413       .  A
C542        N617   1.437       .  S
C543        C544   1.404       .  A
C543       C1142   1.414       .  A
C543        S547   1.801       .  S
C544       C1135   1.404       .  A
C544        H548   1.084       .  S
S545        H550   1.407       .  S
S547        H551   1.402       .  S
C553        C554   1.390       .  A
C553        C558   1.382       .  A
C553        H563   1.084       .  S
C554        C555   1.403       .  A
C554        C559   1.455       .  S
C555        C556   1.389       .  A
C555        S560   1.802       .  S
C556        C557   1.404       .  A
C556        H561   1.076       .  S
C557        C558   1.434       .  A
C558        S562   1.820       .  S
C559        C564   1.402       .  A
C559        C568   1.402       .  A
S560        H576   1.408       .  S
S562        H573   1.392       .  S
C564        C565   1.389       .  A
C564        S569   1.808       .  S
C565        C566   1.405       .  A
C565        H570   1.079       .  S
C566        C567   1.415       .  A
C567        C568   1.384       .  A
C567        S571   1.812       .  S
C568        H572   1.085       .  S
S569        H574   1.407       .  S
S571        H575   1.396       .  S
C577        C578   1.387       .  A
C577        C582   1.390       .  A
C577        H587   1.084       .  S
C578        C579   1.406       .  A
C578        C583   1.447       .  S
C579        C580   1.382       .  A
C579        S584   1.806       .  S
C580        C581   1.402       .  A
C580        H585   1.079       .  S
C581        C582   1.433       .  A
C582        S586   1.811       .  S
C583        C588   1.396       .  A
C583        C592   1.394       .  A
S584        H600   1.405       .  S
S586        H597   1.394   1_554  S
C588        C589   1.391       .  A
C588        S593   1.804       .  S
C589        C590   1.408       .  A
C589        H594   1.076       .  S
C590        C591   1.425       .  A
C591        C592   1.385       .  A
C591        S595   1.815       .  S
C592        H596   1.085       .  S
S593        H598   1.407       .  S
S595        H599   1.393       .  S
C601        C603   1.556       .  S
C601        C605   1.526       .  S
C601        C604   1.548       .  S
C601       C1157   1.507       .  S
C602        C606   1.527       .  S
C602        C608   1.553       .  S
C602        C607   1.531       .  S
C602       C1181   1.502       .  S
C603        C611   1.398       .  A
C604        C615   1.387       .  A
C605        C619   1.369       .  A
C606        C609   1.368       .  A
C607        C613   1.380       .  A
C608        C616   1.397       .  A
C609        H622   1.083       .  S
N610        C611   1.363       .  A
N610       C1085   1.438       .  S
C611        H612   1.081       .  S
C613        H623   1.082       .  S
C613        N614   1.356       .  A
C615        H621   1.082       .  S
C616        H618   1.082       .  S
C616        N617   1.363       .  A
C619        H620   1.083       .  S
C624        C626   1.554       .  S
C624        C628   1.550       .  S
C624        C627   1.526       .  S
C624       C1190   1.506       .  S
C625        C629   1.547       .  S
C625        C631   1.547       .  S
C625        C630   1.533       .  S
C625       C1166   1.506       .  S
C626        C634   1.388       .  A
C626        C629   1.394       .  A
C627        C638   1.375       .  A
C627        C630   1.377       .  A
C628        C642   1.393       .  A
C628        C631   1.386       .  A
C629        C632   1.384       .  A
C630        C636   1.387       .  A
C631        C639   1.385       .  A
C632        H645   1.082       .  S
C632        N633   1.357       .  A
N633        C634   1.357       .  A
N633       C1013   1.445       .  S
C634        H635   1.080       .  S
C636        H646   1.082       .  S
C636        N637   1.361       .  A
N637        C638   1.355       .  A
N637       C1037   1.438       .  S
C638        H644   1.083       .  S
C639        H641   1.081       .  S
C639        N640   1.351       .  A
N640        C642   1.363       .  A
N640       C1070   1.449       .  S
C642        H643   1.081       .  S
O647       Zr659   2.449       .  S
O647        C649   1.293       .  A
O648       Zr685   2.453       .  S
O648        C649   1.295       .  A
C649        C998   1.491       .  S
O650       Zr662   2.439       .  S
O650        C652   1.288       .  A
O651       Zr686   2.422       .  S
O651       C3052   1.286       .  A
C652       O3051   1.291       .  A
C652        C950   1.478       .  S
O653       Zr662   2.465       .  S
O653        C655   1.293       .  A
O654      Zr1885   2.424   1_545  S
O654        C655   1.287       .  A
C655       C1133   1.490       .  S
O656      Zr4259   2.598   1_545  S
O656        C658   1.318       .  A
O657       Zr686   2.572       .  S
O657        C658   1.313       .  A
C658       C1934   1.616       .  S
Zr659      O4256   2.582       .  S
Zr659      O1860   2.434       .  S
Zr659      O3061   2.433   1_455  S
Zr659      O1865   2.415       .  S
Zr659      O1866   2.357       .  S
Zr659      O3089   2.363   1_455  S
Zr659      O3091   2.414   1_455  S
O660      Zr1859   2.434   1_545  S
O660        H703   0.990       .  S
O661      Zr3059   2.429       .  S
O661        H702   0.990       .  S
O661        H706   0.990       .  S
Zr662       O663   2.436       .  S
Zr662       O664   2.434       .  S
Zr662       O666   2.397       .  S
Zr662       O665   2.350       .  S
Zr662       O690   2.388       .  S
Zr662      O3092   2.369   1_455  S
O663        H704   0.990       .  S
O663        H707   0.990       .  S
O664        H697   0.990       .  S
O665      Zr1859   2.412   1_545  S
O665      Zr1885   2.425   1_545  S
O666      Zr1859   2.361   1_545  S
O666      Zr3086   2.389   1_455  S
O666        H693   0.965       .  S
O667       Zr679   2.443       .  S
O667        C669   1.288       .  A
O668       Zr686   2.446   1_565  S
O668       C1869   1.291       .  A
C669       O1868   1.291       .  A
C669        C965   1.488       .  S
O670       C1872   1.309       .  A
O671       C3072   1.320       .  A
C672       O1870   1.314       .  A
C672       O3071   1.318       .  A
C672       C1920   1.612       .  S
O673       Zr682   2.499       .  S
O673        C675   1.300       .  A
O674       Zr686   2.419       .  S
O674        C675   1.288       .  A
C675       C1094   1.491       .  S
O676       Zr679   2.437       .  S
O676        C678   1.287       .  A
O677      Zr3085   2.456       .  S
O677        C678   1.292       .  A
C678       C1118   1.484       .  S
Zr679       O680   2.433       .  S
Zr679       O681   2.434       .  S
Zr679       O687   2.363       .  S
Zr679       O688   2.391       .  S
Zr679       O691   2.360       .  S
Zr679       O689   2.394       .  S
O680        H700   0.989       .  S
O680        H705   0.990       .  S
O681        H701   0.990       .  S
Zr682      O1283   2.435   1_556  S
Zr682      O1888   2.380   1_545  S
Zr682      O1887   2.414       .  S
Zr682       O692   2.400       .  S
Zr682      O3090   2.375       .  S
O683      Zr1282   2.434       .  S
O683        H699   0.990       .  S
O684       H3098   0.990       .  S
O684        H708   0.990       .  S
Zr685      O1854   2.429       .  S
Zr685      O3077   2.464   1_455  S
Zr685      O1865   2.430       .  S
Zr685      O3088   2.380   1_455  S
Zr685      O1890   2.381       .  S
Zr685      O3091   2.424   1_455  S
Zr686      O3066   2.383       .  S
Zr686      O1887   2.425       .  S
Zr686      O1889   2.375   1_545  S
Zr686       O692   2.423       .  S
O687      Zr1882   2.406       .  S
O687      Zr1886   2.423       .  S
O687        H695   0.966       .  S
O688      Zr1882   2.380       .  S
O688      Zr3085   2.382       .  S
O689      Zr3059   2.367       .  S
O689      Zr1886   2.375       .  S
O690      Zr3082   2.372   1_455  S
O690      Zr1885   2.381   1_545  S
O691      Zr3059   2.418       .  S
O691      Zr3085   2.430       .  S
O691        H696   0.965       .  S
O692      Zr3062   2.367       .  S
H698       O3084   0.990   1_455  S
O709       Zr721   2.490       .  S
O709        C711   1.299       .  A
O710       Zr747   2.404       .  S
O710        C711   1.286       .  A
C711        C926   1.488       .  S
O712       Zr724   2.463       .  S
O712        C714   1.292       .  A
O713       Zr748   2.431       .  S
O713       C3114   1.288       .  A
C714       O3113   1.292       .  A
C714        C878   1.504       .  S
O715       Zr724   2.452       .  S
O715        C717   1.290       .  A
O716      Zr1947   2.440   1_545  S
O716        C717   1.289       .  A
C717       C1061   1.487       .  S
O718      Zr1921   2.588       .  S
O718       C3120   1.316   1_465  A
O719       Zr748   2.591       .  S
O719        C720   1.319       .  A
C720       O3118   1.309   1_545  A
C720       C1872   1.604       .  S
Zr721      O1918   2.570       .  S
Zr721      O1922   2.435       .  S
Zr721      O3123   2.434   1_455  S
Zr721      O1927   2.399       .  S
Zr721      O1928   2.377       .  S
Zr721      O3151   2.378   1_455  S
Zr721      O3153   2.410   1_455  S
O722      Zr1921   2.436   1_545  S
O722        H765   0.990       .  S
O723      Zr3121   2.434       .  S
O723        H764   0.990       .  S
O723        H768   0.990       .  S
Zr724       O725   2.438       .  S
Zr724       O726   2.434       .  S
Zr724       O728   2.391       .  S
Zr724       O727   2.354       .  S
Zr724       O752   2.403       .  S
Zr724      O3154   2.365       .  S
O725        H766   0.990       .  S
O725        H769   0.990       .  S
O726        H759   0.990       .  S
O727      Zr1921   2.398   1_545  S
O727      Zr1947   2.410   1_545  S
O728      Zr1921   2.378   1_545  S
O728      Zr3148   2.382   1_455  S
O728        H755   0.966       .  S
O729       Zr741   2.441       .  S
O729        C731   1.288       .  A
O730       Zr748   2.445   1_565  S
O730       C1931   1.291       .  A
C731       O1930   1.291       .  A
C731        C893   1.491       .  S
O732       Zr744   2.609       .  S
O732       C1934   1.320       .  A
O733       Zr747   2.553       .  S
O733       C3134   1.310   1_455  A
C734       O1932   1.321       .  A
C734       O3133   1.310       .  A
C734       C1858   1.612       .  S
O735       Zr744   2.489       .  S
O735        C737   1.300       .  A
O736       Zr748   2.442       .  S
O736        C737   1.292       .  A
C737       C1022   1.499       .  S
O738       Zr741   2.450       .  S
O738        C740   1.290       .  A
O739      Zr3147   2.443       .  S
O739        C740   1.290       .  A
C740       C1046   1.498       .  S
Zr741       O742   2.437       .  S
Zr741       O743   2.432       .  S
Zr741       O749   2.360       .  S
Zr741       O750   2.385       .  S
Zr741       O753   2.365       .  S
Zr741       O751   2.398       .  S
O742        H762   0.990       .  S
O742        H767   0.990       .  S
O743        H763   0.990       .  S
Zr744      O1945   2.434       .  S
Zr744       O746   2.436       .  S
Zr744      O1950   2.363   1_545  S
Zr744      O1949   2.420       .  S
Zr744       O754   2.420       .  S
Zr744      O3152   2.375       .  S
O745      Zr1944   2.438       .  S
O745        H761   0.990       .  S
O746       H3160   0.990       .  S
O746        H770   0.990       .  S
Zr747      O1916   2.452       .  S
Zr747      O3139   2.445   1_455  S
Zr747      O1927   2.412       .  S
Zr747      O3150   2.373   1_455  S
Zr747      O1952   2.386       .  S
Zr747      O3153   2.423   1_455  S
Zr748      O3128   2.380       .  S
Zr748      O1949   2.430       .  S
Zr748      O1951   2.377   1_545  S
Zr748       O754   2.425       .  S
O749      Zr1944   2.414       .  S
O749      Zr1948   2.429       .  S
O749        H757   0.965       .  S
O750      Zr1944   2.367       .  S
O750      Zr3147   2.375       .  S
O751      Zr3121   2.377       .  S
O751      Zr1948   2.384       .  S
O752      Zr3144   2.374   1_455  S
O752      Zr1947   2.380   1_545  S
O752        H756   0.965       .  S
O753      Zr3121   2.419       .  S
O753      Zr3147   2.430       .  S
O753        H758   0.966       .  S
O754      Zr3124   2.359       .  S
H760       O3146   0.990   1_655  S
C771        C773   1.550       .  S
C771        C775   1.555       .  S
C771        C774   1.519       .  S
C771        C821   1.501       .  S
C772        C776   1.526       .  S
C772        C778   1.552       .  S
C772        C777   1.541       .  S
C772        C845   1.498       .  S
C773        C781   1.392       .  A
C773        C776   1.377       .  A
C774        C785   1.372       .  A
C774        C777   1.370       .  A
C775        C789   1.388       .  A
C775        C778   1.405       .  A
C776        C779   1.377       .  A
C777        C783   1.392       .  A
C778        C786   1.379       .  A
C779        H792   1.083       .  S
C779        N780   1.352       .  A
N780        C781   1.359       .  A
N780        C989   1.436       .  S
C781        H782   1.082       .  S
C783        H793   1.082       .  S
C783        N784   1.361       .  A
N784        C785   1.352       .  A
N784        C941   1.439       .  S
C785        H791   1.083       .  S
C786        H788   1.079       .  S
C786        N787   1.355       .  A
N787        C789   1.359       .  A
N787        C974   1.442       .  S
C789        H790   1.081       .  S
C794        C796   1.557       .  S
C794        C798   1.542       .  S
C794        C797   1.552       .  S
C794        C854   1.514       .  S
C795        C799   1.529       .  S
C795        C801   1.555       .  S
C795        C800   1.527       .  S
C795        C830   1.498       .  S
C796        C804   1.387       .  A
C796        C799   1.380       .  A
C797        C808   1.400       .  A
C797        C800   1.383       .  A
C798        C812   1.380       .  A
C798        C801   1.390       .  A
C799        C802   1.389       .  A
C800        C806   1.373       .  A
C801        C809   1.388       .  A
C802        H815   1.082       .  S
C802        N803   1.358       .  A
N803        C804   1.351       .  A
N803        C917   1.443       .  S
C804        H805   1.080       .  S
C806        H816   1.082       .  S
C806        N807   1.347       .  A
N807        C808   1.366       .  A
N807        C869   1.443       .  S
C808        H814   1.082       .  S
C809        H811   1.082       .  S
C809        N810   1.361       .  A
N810        C812   1.357       .  A
N810        C902   1.446       .  S
C812        H813   1.081       .  S
C817        C818   1.401       .  A
C817        C822   1.393       .  A
C817        H827   1.084       .  S
C818        C819   1.402       .  A
C818        C823   1.447       .  S
C819        C820   1.377       .  A
C819        S824   1.802       .  S
C820        C821   1.408       .  A
C820        H825   1.083       .  S
C821        C822   1.416       .  A
C822        S826   1.802       .  S
C823        C828   1.414       .  A
C823        C832   1.393       .  A
S824        H840   1.408       .  S
S826        H837   1.402       .  S
C828        C829   1.384       .  A
C828        S833   1.812       .  S
C829        C830   1.395       .  A
C829        H834   1.080       .  S
C830        C831   1.420       .  A
C831        C832   1.385       .  A
C831        S835   1.810       .  S
C832        H836   1.084       .  S
S833        H838   1.407       .  S
S835        H839   1.400       .  S
C841        C842   1.396   1_556  A
C841        C846   1.372       .  A
C841        H851   1.083   1_556  S
C842        C843   1.403   1_554  A
C843        C844   1.391       .  A
C843        S848   1.803       .  S
C844        C845   1.406       .  A
C844        H849   1.073       .  S
C845        C846   1.425       .  A
C846        S850   1.823       .  S
C847        C852   1.397       .  A
C847        C856   1.403       .  A
S850        H861   1.390       .  S
C852        C853   1.377       .  A
C852        S857   1.811       .  S
C853        C854   1.403       .  A
C853        H858   1.078       .  S
C854        C855   1.422       .  A
C855        C856   1.397       .  A
C855        S859   1.812       .  S
C856        H860   1.084       .  S
S857        H862   1.407       .  S
S859        H863   1.395       .  S
C865        C866   1.404       .  A
C865        C870   1.406       .  A
C865        H875   1.084       .  S
C866        C867   1.417       .  A
C866        C871   1.500       .  S
C867        C868   1.409       .  A
C867        S872   1.803       .  S
C868        C869   1.404       .  A
C868        H873   1.083       .  S
C869        C870   1.413       .  A
C870        S874   1.801       .  S
C871        C876   1.411       .  A
C871        C880   1.405       .  A
S872        H888   1.405       .  S
S874        H885   1.406       .  S
C876        C877   1.409       .  A
C876        S881   1.807       .  S
C877        C878   1.409       .  A
C877        H882   1.082       .  S
C878        C879   1.420       .  A
C879        C880   1.411       .  A
C879        S883   1.800       .  S
C880        H884   1.084       .  S
S881        H886   1.407       .  S
S883        H887   1.407       .  S
C889        C890   1.404       .  A
C889        C894   1.401       .  A
C889        H899   1.084       .  S
C890        C891   1.416       .  A
C890        C895   1.495       .  S
C891        C892   1.406       .  A
C891        S896   1.804       .  S
C892        C893   1.407       .  A
C892       H2097   1.084       .  S
C893        C894   1.417       .  A
C894        S898   1.803       .  S
C895        C900   1.412       .  A
C895        C904   1.406       .  A
S896        H912   1.406       .  S
H897       C2092   1.084   1_545  S
S898        H909   1.407       .  S
C900        C901   1.405       .  A
C900        S905   1.807       .  S
C901        C902   1.405       .  A
C901        H906   1.082       .  S
C902        C903   1.415       .  A
C903        C904   1.406       .  A
C903        S907   1.802       .  S
C904        H908   1.084       .  S
S905        H910   1.407       .  S
S907        H911   1.407       .  S
C913        C914   1.403       .  A
C913        C918   1.401       .  A
C913        H923   1.084       .  S
C914        C915   1.415       .  A
C914        C919   1.491       .  S
C915        C916   1.406       .  A
C915        S920   1.804       .  S
C916        C917   1.404       .  A
C916        H921   1.083       .  S
C917        C918   1.413       .  A
C918        S922   1.802       .  S
C919        C924   1.409       .  A
C919        C928   1.408       .  A
S920        H936   1.407       .  S
S922        H933   1.407       .  S
C924        C925   1.401       .  A
C924        S929   1.807       .  S
C925        C926   1.409       .  A
C925        H930   1.083       .  S
C926        C927   1.414       .  A
C927        C928   1.406       .  A
C927       S3331   1.800       .  S
C928        H932   1.084       .  S
S929       H2134   1.407       .  S
S931       C3327   1.802       .  S
S931        H935   1.407       .  S
H934       S2129   1.407       .  S
C937        C938   1.403       .  A
C937        C942   1.400       .  A
C937        H947   1.084       .  S
C938        C939   1.416       .  A
C938        C943   1.490       .  S
C939        C940   1.404       .  A
C939        S944   1.803       .  S
C940        C941   1.401       .  A
C940        H945   1.083       .  S
C941        C942   1.413       .  A
C942        S946   1.803       .  S
C943        C948   1.411       .  A
C943        C952   1.405       .  A
S944        H960   1.406       .  S
S946        H957   1.407       .  S
C948        C949   1.406       .  A
C948        S953   1.805       .  S
C949        C950   1.403       .  A
C949        H954   1.083       .  S
C950        C951   1.412       .  A
C951        C952   1.403       .  A
C951        S955   1.803       .  S
C952        H956   1.084       .  S
S953       H3358   1.405   1_455  S
S955        H959   1.407       .  S
H958       S3353   1.407       .  S
C961        C962   1.400       .  A
C961        C966   1.402       .  A
C961        H971   1.083       .  S
C962        C963   1.412       .  A
C962        C967   1.485       .  S
C963        C964   1.405       .  A
C963        S968   1.803       .  S
C964        C965   1.406       .  A
C964        H969   1.084       .  S
C965        C966   1.417       .  A
C966        S970   1.807       .  S
C967        C972   1.410       .  A
C967        C976   1.401       .  A
S968        H984   1.405       .  S
S970       H2181   1.406       .  S
C972        C973   1.408       .  A
C972        S977   1.805       .  S
C973        C974   1.404       .  A
C973        H978   1.082       .  S
C974        C975   1.414       .  A
C975        C976   1.400       .  A
C975        S979   1.803       .  S
C976        H980   1.084       .  S
S977        H982   1.407       .  S
S979        H983   1.407       .  S
H981       S2170   1.406       .  S
C985        C986   1.404       .  A
C985        C990   1.404       .  A
C985        H995   1.084       .  S
C986        C987   1.413       .  A
C986        C991   1.485       .  S
C987        C988   1.400       .  A
C987        S992   1.805       .  S
C988        C989   1.401       .  A
C988        H993   1.083       .  S
C989        C990   1.414       .  A
C990        S994   1.803       .  S
C991        C996   1.408       .  A
C991       C1000   1.402       .  A
S992       H1008   1.406       .  S
S994       H1005   1.401       .  S
C996        C997   1.405       .  A
C996       S1001   1.806       .  S
C997        C998   1.411       .  A
C997       H1002   1.083       .  S
C998        C999   1.417       .  A
C999       C1000   1.400       .  A
C999       S1003   1.801       .  S
C1000      H1004   1.084       .  S
S1001      H1006   1.407       .  S
S1003      H1007   1.405       .  S
C1009      C1010   1.406       .  A
C1009      C1014   1.407       .  A
C1009      H1019   1.084       .  S
C1010      C1011   1.415       .  A
C1010      C1015   1.495       .  S
C1011      C1012   1.402       .  A
C1011      S1016   1.803       .  S
C1012      C1013   1.403       .  A
C1012      H1017   1.083       .  S
C1013      C1014   1.415       .  A
C1014      S1018   1.802       .  S
C1015      C1020   1.411       .  A
C1015      C1024   1.403       .  A
S1016      H1032   1.406       .  S
S1018      H1029   1.407       .  S
C1020      C1021   1.409       .  A
C1020      S1025   1.805       .  S
C1021      C1022   1.408       .  A
C1021      H1026   1.083       .  S
C1022      C1023   1.421       .  A
C1023      C1024   1.406       .  A
C1023      S1027   1.803       .  S
C1024      H1028   1.084       .  S
S1025      H1030   1.407       .  S
S1027      H1031   1.407       .  S
C1033      C1034   1.404       .  A
C1033      C1038   1.401       .  A
C1033      H1043   1.084       .  S
C1034      C1035   1.414       .  A
C1034      C1039   1.489       .  S
C1035      C1036   1.403       .  A
C1035      S1040   1.802       .  S
C1036      C1037   1.402       .  A
C1036      H1041   1.083       .  S
C1037      C1038   1.411       .  A
C1038      S1042   1.802       .  S
C1039      C1044   1.408       .  A
C1039      C1048   1.400       .  A
S1040      H1056   1.407       .  S
S1042      H1053   1.407       .  S
C1044      C1045   1.410       .  A
C1044      S1049   1.801       .  S
C1045      C1046   1.411       .  A
C1045      H1050   1.083       .  S
C1046      C1047   1.421       .  A
C1047      C1048   1.399       .  A
C1047      S1051   1.801       .  S
C1048      H1052   1.084       .  S
S1049      H1054   1.406       .  S
S1051      H1055   1.408       .  S
C1057      C1058   1.402       .  A
C1057      C1062   1.401       .  A
C1057      H1067   1.084       .  S
C1058      C1059   1.420       .  A
C1058      C1063   1.495       .  S
C1059      C1060   1.408       .  A
C1059      S1064   1.805       .  S
C1060      C1061   1.404       .  A
C1060      H1065   1.084       .  S
C1061      C1062   1.416       .  A
C1062      S1066   1.805       .  S
C1063      C1068   1.411       .  A
C1063      C1072   1.404       .  A
S1064      H1080   1.404       .  S
S1066      H1077   1.404       .  S
C1068      C1069   1.411       .  A
C1068      S1073   1.806       .  S
C1069      C1070   1.410       .  A
C1069      H1074   1.082       .  S
C1070      C1071   1.413       .  A
C1071      C1072   1.403       .  A
C1071      S1075   1.798       .  S
C1072      H1076   1.084       .  S
S1073      H1078   1.406       .  S
S1075      H1079   1.407       .  S
C1081      C1082   1.406       .  A
C1081      C1086   1.401       .  A
C1081      H1091   1.084       .  S
C1082      C1083   1.418       .  A
C1082      C1087   1.496       .  S
C1083      C1084   1.407       .  A
C1083      S1088   1.805       .  S
C1084      C1085   1.403       .  A
C1084      H1089   1.083       .  S
C1085      C1086   1.410       .  A
C1087      C1096   1.399       .  A
S1088      H1104   1.405       .  S
S1090      H1101   1.407       .  S
C1092      S1097   1.805       .  S
C1093      C1094   1.407       .  A
C1094      C1095   1.416       .  A
C1095      C1096   1.396       .  A
C1095      S1099   1.799       .  S
C1096      H1100   1.084       .  S
S1097      H1102   1.407       .  S
S1099      H1103   1.407       .  S
C1105      C1110   1.401       .  A
C1105      H1115   1.084       .  S
C1106      C1107   1.416       .  A
C1106      C1111   1.486       .  S
C1107      C1108   1.406       .  A
C1107      S1112   1.804       .  S
C1108      C1109   1.404       .  A
C1108      H1113   1.083       .  S
C1110      S1114   1.799       .  S
C1111      C1116   1.412   1_556  A
C1111      C1120   1.400       .  A
S1112      H1128   1.405       .  S
S1114      H1125   1.407       .  S
C1116      C1117   1.411       .  A
C1116      S1121   1.805       .  S
C1117      C1118   1.406   1_554  A
C1117      H1122   1.083       .  S
C1118      C1119   1.415       .  A
C1119      C1120   1.398       .  A
C1119      S1123   1.803       .  S
C1120      H1124   1.084       .  S
S1121      H1126   1.407       .  S
S1123      H1127   1.407       .  S
C1129      C1130   1.404   1_556  A
C1129      C1134   1.401       .  A
C1129      H1139   1.084       .  S
C1130      C1135   1.491       .  S
C1131      C1132   1.404       .  A
C1131      S1136   1.805       .  S
C1132      H1137   1.084       .  S
C1133      C1134   1.416       .  A
C1134      S1138   1.805       .  S
C1135      C1140   1.411       .  A
S1136      H1152   1.405       .  S
S1138      H1149   1.405       .  S
C1140      C1141   1.406       .  A
C1140      S1145   1.806       .  S
C1141      C1142   1.404       .  A
C1141      H1146   1.082       .  S
C1143      C1144   1.400       .  A
C1143      S1147   1.801       .  S
C1144      H1148   1.084       .  S
S1145      H1150   1.407       .  S
S1147      H1151   1.402       .  S
C1153      C1154   1.392       .  A
C1153      C1158   1.383       .  A
C1153      H1163   1.084       .  S
C1154      C1155   1.402       .  A
C1154      C1159   1.454       .  S
C1155      C1156   1.388       .  A
C1155      S1160   1.802       .  S
C1156      C1157   1.404       .  A
C1156      H1161   1.077       .  S
C1157      C1158   1.431       .  A
C1158      S1162   1.818       .  S
C1159      C1164   1.401       .  A
C1159      C1168   1.405       .  A
S1160      H1176   1.408       .  S
S1162      H1173   1.392       .  S
C1164      C1165   1.388       .  A
C1164      S1169   1.808       .  S
C1165      C1166   1.405       .  A
C1165      H1170   1.078       .  S
C1166      C1167   1.408       .  A
C1167      C1168   1.390       .  A
C1167      S1171   1.811       .  S
C1168      H1172   1.083       .  S
S1169      H1174   1.407       .  S
S1171      H1175   1.407       .  S
C1177      C1178   1.387       .  A
C1177      C1182   1.388       .  A
C1177      H1187   1.084       .  S
C1178      C1179   1.406       .  A
C1178      C1183   1.445       .  S
C1179      C1180   1.381       .  A
C1179      S1184   1.806       .  S
C1180      C1181   1.401       .  A
C1180      H1185   1.079       .  S
C1181      C1182   1.432       .  A
C1182      S1186   1.813       .  S
C1183      C1188   1.396       .  A
C1183      C1192   1.393       .  A
S1184      H1200   1.405       .  S
S1186      H1197   1.394       .  S
C1188      C1189   1.391       .  A
C1188      S1193   1.805       .  S
C1189      C1190   1.408       .  A
C1189      H1194   1.076       .  S
C1190      C1191   1.424       .  A
C1191      C1192   1.384       .  A
C1191      S1195   1.813       .  S
C1192      H1196   1.085       .  S
S1193      H1198   1.407       .  S
S1195      H1199   1.393       .  S
C1201      C1203   1.560       .  S
C1201      C1205   1.526       .  S
C1201      C1204   1.548       .  S
C1201      C1757   1.503       .  S
C1202      C1206   1.526       .  S
C1202      C1208   1.560       .  S
C1202      C1207   1.533       .  S
C1202      C1781   1.502       .  S
C1203      C1211   1.401       .  A
C1203      C1806   1.387       .  A
C1204      C1215   1.388       .  A
C1204      C1807   1.381       .  A
C1205      C1219   1.370       .  A
C1205      C1808   1.385       .  A
C1206      C1803   1.387   1_554  A
C1206      C1209   1.367       .  A
C1207      C1804   1.380   1_554  A
C1207      C1213   1.382       .  A
C1208      C1805   1.385   1_554  A
C1208      C1216   1.401       .  A
C1209      H1222   1.083       .  S
C1209      N1810   1.347   1_554  A
N1210      C1809   1.346       .  A
N1210      C1211   1.364       .  A
N1210      C1685   1.438       .  S
C1211      H1212   1.080       .  S
C1213      H1223   1.082       .  S
C1213      N1214   1.356   1_554  A
N1214      C1815   1.359       .  A
N1214      C2309   1.441       .  S
C1215      H1221   1.082       .  S
C1215      N1814   1.359       .  A
C1216      H1218   1.082       .  S
C1216      N1217   1.367       .  A
N1217      C1819   1.348   1_554  A
N1217      C2342   1.443       .  S
C1219      H1220   1.083       .  S
C1219      N1817   1.348       .  A
C1224      C1226   1.556       .  S
C1224      C1228   1.548       .  S
C1224      C1227   1.521       .  S
C1224      C1790   1.500       .  S
C1225      C1229   1.551       .  S
C1225      C1231   1.546       .  S
C1225      C1230   1.534       .  S
C1225      C1766   1.501       .  S
C1226      C1234   1.392       .  A
C1226      C1229   1.390       .  A
C1227      C1238   1.371       .  A
C1227      C1230   1.375       .  A
C1228      C1242   1.392       .  A
C1228      C1231   1.387       .  A
C1229      C1232   1.388       .  A
C1230      C1236   1.389       .  A
C1231      C1239   1.383       .  A
C1232      H1245   1.082       .  S
C1232      N1233   1.360       .  A
N1233      C1234   1.359       .  A
N1233      C1613   1.452       .  S
C1234      H1235   1.080       .  S
C1236      H1246   1.082       .  S
C1236      N1237   1.362       .  A
N1237      C1238   1.352       .  A
N1237      C1637   1.436       .  S
C1238      H1244   1.083       .  S
C1239      H1241   1.080       .  S
C1239      N1240   1.351       .  A
N1240      C1242   1.360       .  A
N1240      C1670   1.442       .  S
C1242      H1243   1.081       .  S
O1247     Zr1259   2.460       .  S
O1247      C1249   1.295       .  A
O1248     Zr1285   2.443       .  S
O1248      C1249   1.293       .  A
C1249      C1598   1.487       .  S
O1250     Zr1262   2.437       .  S
O1250      C1252   1.288       .  A
O1251     Zr1286   2.428       .  S
O1251      C3652   1.287       .  A
C1252      O3651   1.290       .  A
C1252      C1550   1.479       .  S
O1253     Zr1262   2.465       .  S
O1253      C1255   1.293       .  A
O1254      C1255   1.288       .  A
C1255      C1733   1.496       .  S
O1256     Zr2459   2.584       .  S
O1256      C1258   1.315       .  A
O1257     Zr1286   2.573       .  S
O1257      C1258   1.314       .  A
Zr1259     O2456   2.589   1_565  S
Zr1259     O3661   2.430   1_455  S
Zr1259     O3689   2.365   1_455  S
Zr1259     O3691   2.414   1_455  S
O1260      H1303   0.990       .  S
O1261     Zr3659   2.434       .  S
O1261      H1302   0.990       .  S
O1261      H1306   0.990       .  S
Zr1262     O1263   2.434       .  S
Zr1262     O1264   2.436       .  S
Zr1262     O1266   2.399       .  S
Zr1262     O1265   2.355       .  S
Zr1262     O1290   2.383       .  S
Zr1262     O3692   2.368   1_455  S
O1263      H1304   0.989       .  S
O1263      H1307   0.990       .  S
O1264      H1297   0.990       .  S
O1266     Zr3686   2.386   1_455  S
O1266      H1293   0.965       .  S
O1267     Zr1279   2.433       .  S
O1267      C1269   1.287       .  A
O1268     Zr1286   2.446       .  S
C1269      C1565   1.488       .  S
O1270     Zr1882   2.562   1_554  S
O1271     Zr1885   2.587   1_554  S
O1271      C3672   1.319   1_465  A
C1272      O3671   1.315       .  A
O1273     Zr1282   2.472       .  S
O1273      C1275   1.295       .  A
O1274     Zr1286   2.425       .  S
O1274      C1275   1.289       .  A
C1275      C1694   1.478       .  S
O1276     Zr1279   2.445       .  S
O1276      C1278   1.288       .  A
O1277     Zr3685   2.452       .  S
O1277      C1278   1.291       .  A
C1278      C1718   1.483       .  S
Zr1279     O1280   2.435       .  S
Zr1279     O1281   2.434       .  S
Zr1279     O1287   2.367       .  S
Zr1279     O1288   2.392       .  S
Zr1279     O1291   2.351       .  S
Zr1279     O1289   2.396       .  S
O1280      H1300   0.990       .  S
O1280      H1305   0.990       .  S
O1281      H1301   0.990       .  S
Zr1282     O1870   2.578       .  S
Zr1282     O1884   2.434       .  S
Zr1282     O1292   2.404       .  S
Zr1282     O3690   2.364       .  S
O1283      H1299   0.990   1_545  S
O1284     Zr1882   2.430   1_554  S
O1284      H3698   0.990       .  S
O1284      H1308   0.990       .  S
Zr1285     O1871   2.587       .  S
Zr1285     O3677   2.456   1_455  S
Zr1285     O3688   2.376   1_455  S
Zr1285     O3691   2.428   1_455  S
Zr1286     O3666   2.384       .  S
Zr1286     O1292   2.421       .  S
O1287      H1295   0.965       .  S
O1288     Zr3685   2.379       .  S
O1289     Zr3659   2.365       .  S
O1290     Zr3682   2.373   1_455  S
O1290      H1894   0.966       .  S
O1291     Zr3659   2.413       .  S
O1291     Zr3685   2.426       .  S
O1291      H1296   0.963       .  S
O1292     Zr3662   2.361       .  S
H1294      O1890   0.966   1_554  S
H1298      O3684   0.990   1_455  S
O1309     Zr1321   2.488       .  S
O1309      C1311   1.299       .  A
O1310     Zr1347   2.412       .  S
O1310      C1311   1.286       .  A
C1311      C1526   1.482       .  S
O1312     Zr1324   2.449       .  S
O1312      C1314   1.289       .  A
O1313     Zr1348   2.432       .  S
O1313      C3714   1.287       .  A
C1314      O3713   1.291       .  A
C1314      C1478   1.505       .  S
O1315     Zr1324   2.434       .  S
O1315      C1317   1.286       .  A
O1316      C1317   1.291       .  A
C1317      C1661   1.486       .  S
O1318      C3720   1.311   1_455  A
O1319     Zr1348   2.572       .  S
O1319      C1320   1.315       .  A
C1320      O3718   1.312       .  A
Zr1321     O3723   2.436   1_455  S
Zr1321     O3751   2.377   1_455  S
Zr1321     O3753   2.408   1_455  S
O1322      H1365   0.990       .  S
O1323     Zr3721   2.435       .  S
O1323      H1364   0.990       .  S
O1323      H1368   0.990       .  S
Zr1324     O1325   2.438       .  S
Zr1324     O1326   2.435       .  S
Zr1324     O1328   2.398       .  S
Zr1324     O1327   2.357       .  S
Zr1324     O1352   2.397       .  S
Zr1324     O3754   2.353       .  S
O1325      H1366   0.990       .  S
O1325      H1369   0.990       .  S
O1326      H1359   0.990       .  S
O1328     Zr3748   2.385   1_455  S
O1328      H1355   0.966       .  S
O1329     Zr1341   2.452       .  S
O1329      C1331   1.290       .  A
O1330     Zr1348   2.441       .  S
C1331      C1493   1.488       .  S
O1332     Zr1344   2.588       .  S
O1333     Zr1347   2.569   1_545  S
O1333      C3734   1.314   1_455  A
C1334      O3733   1.313       .  A
O1335     Zr1344   2.480       .  S
O1335      C1337   1.297       .  A
O1336     Zr1348   2.454       .  S
O1336      C1337   1.295       .  A
C1337      C1622   1.498       .  S
O1338     Zr1341   2.447       .  S
O1338      C1340   1.289       .  A
O1339     Zr3747   2.446   1_565  S
O1339      C1340   1.291       .  A
C1340      C1646   1.497       .  S
Zr1341     O1342   2.436       .  S
Zr1341     O1343   2.435       .  S
Zr1341     O1349   2.362   1_565  S
Zr1341     O1350   2.391       .  S
Zr1341     O1353   2.367       .  S
Zr1341     O1351   2.392       .  S
O1342      H1362   0.990       .  S
O1342      H1367   0.990       .  S
O1343      H1363   0.990       .  S
Zr1344     O1346   2.435       .  S
Zr1344     O1354   2.417       .  S
Zr1344     O3752   2.381       .  S
O1345      H1361   0.990   1_545  S
O1346      H3760   0.990       .  S
O1346      H1370   0.990       .  S
Zr1347     O3739   2.426   1_455  S
Zr1347     O3750   2.375   1_455  S
Zr1347     O3753   2.428   1_455  S
Zr1348     O3728   2.386       .  S
Zr1348     O1354   2.416       .  S
O1349      H1357   0.965       .  S
O1350     Zr3747   2.377   1_565  S
O1351     Zr3721   2.375       .  S
O1352     Zr3744   2.376   1_455  S
O1352      H1356   0.965       .  S
O1353     Zr3721   2.416       .  S
O1353     Zr3747   2.431   1_565  S
O1353      H1358   0.965       .  S
O1354     Zr3724   2.361       .  S
H1360      O3746   0.990       .  S
C1371      C1373   1.549       .  S
C1371      C1375   1.551       .  S
C1371      C1374   1.518       .  S
C1371      C1421   1.502       .  S
C1372      C1376   1.525       .  S
C1372      C1378   1.560       .  S
C1372      C1377   1.542       .  S
C1372      C1445   1.499       .  S
C1373      C1381   1.391       .  A
C1373      C1376   1.375       .  A
C1374      C1385   1.371       .  A
C1374      C1377   1.370       .  A
C1375      C1389   1.384       .  A
C1375      C1378   1.408       .  A
C1376      C1379   1.378       .  A
C1377      C1383   1.393       .  A
C1378      C1386   1.385       .  A
C1379      H1392   1.083       .  S
C1379      N1380   1.351       .  A
N1380      C1381   1.359       .  A
N1380      C1589   1.436       .  S
C1381      H1382   1.082       .  S
C1383      H1393   1.082       .  S
C1383      N1384   1.362       .  A
N1384      C1385   1.352       .  A
N1384      C1541   1.441       .  S
C1385      H1391   1.083       .  S
C1386      H1388   1.079       .  S
C1386      N1387   1.358       .  A
N1387      C1389   1.358       .  A
N1387      C1574   1.443       .  S
C1389      H1390   1.081       .  S
C1394      C1396   1.551       .  S
C1394      C1398   1.544       .  S
C1394      C1397   1.547       .  S
C1394      C1454   1.514       .  S
C1395      C1399   1.530       .  S
C1395      C1401   1.554       .  S
C1395      C1400   1.531       .  S
C1395      C1430   1.495       .  S
C1396      C1404   1.385       .  A
C1396      C1399   1.382       .  A
C1397      C1408   1.397       .  A
C1397      C1400   1.378       .  A
C1398      C1412   1.379       .  A
C1398      C1401   1.393       .  A
C1399      C1402   1.391       .  A
C1400      C1406   1.376       .  A
C1401      C1409   1.388       .  A
C1402      H1415   1.082       .  S
C1402      N1403   1.356       .  A
N1403      C1404   1.349       .  A
N1403      C1517   1.443       .  S
C1404      H1405   1.081       .  S
C1406      H1416   1.082       .  S
C1406      N1407   1.351       .  A
N1407      C1408   1.366       .  A
N1407      C1469   1.444       .  S
C1408      H1414   1.082       .  S
C1409      H1411   1.081       .  S
C1409      N1410   1.360       .  A
N1410      C1412   1.359       .  A
N1410      C1502   1.448       .  S
C1412      H1413   1.081       .  S
C1417      C1418   1.403       .  A
C1417      C1422   1.393       .  A
C1417      H1427   1.084       .  S
C1418      C1419   1.403       .  A
C1418      C1423   1.451       .  S
C1419      C1420   1.381       .  A
C1419      S1424   1.809       .  S
C1420      C1421   1.408       .  A
C1420      H1425   1.082       .  S
C1421      C1422   1.413       .  A
C1422      S1426   1.801       .  S
C1423      C1428   1.416       .  A
C1423      C1432   1.393       .  A
S1424      H1440   1.407       .  S
S1426      H1437   1.403       .  S
C1428      C1429   1.385       .  A
C1428      S1433   1.813       .  S
C1429      C1430   1.393       .  A
C1429      H1434   1.077       .  S
C1430      C1431   1.417       .  A
C1431      C1432   1.386       .  A
C1431      S1435   1.810       .  S
C1432      H1436   1.083       .  S
S1433      H1438   1.407       .  S
S1435      H1439   1.407       .  S
C1441      C1442   1.395       .  A
C1441      C1446   1.375       .  A
C1441      H1451   1.084       .  S
C1442      C1443   1.402       .  A
C1442      C2047   1.457       .  S
C1443      C1444   1.392       .  A
C1443      S1448   1.802       .  S
C1444      C1445   1.405       .  A
C1444      H1449   1.073       .  S
C1445      C1446   1.429       .  A
C1446      S1450   1.825       .  S
C1447      C1452   1.398       .  A
C1447      C1456   1.404       .  A
C1447      C2042   1.456       .  S
S1448      H2064   1.407       .  S
S1450      H1461   1.392       .  S
C1452      C1453   1.376       .  A
C1452      S1457   1.812       .  S
C1453      C1454   1.405       .  A
C1453      H1458   1.079       .  S
C1454      C1455   1.420       .  A
C1455      C1456   1.396       .  A
C1455      S1459   1.811       .  S
C1456      H1460   1.084       .  S
S1457      H1462   1.407       .  S
S1459      H1463   1.395       .  S
H1464      S2048   1.407       .  S
C1465      C1466   1.402       .  A
C1465      C1470   1.404       .  A
C1465      H1475   1.084       .  S
C1466      C1467   1.418       .  A
C1466      C1471   1.496       .  S
C1467      C1468   1.409       .  A
C1467      S1472   1.805       .  S
C1468      C1469   1.404       .  A
C1468      H1473   1.083       .  S
C1469      C1470   1.414       .  A
C1470      S1474   1.801       .  S
C1471      C1476   1.409       .  A
C1471      C1480   1.405       .  A
S1472      H1488   1.405       .  S
S1474      H1485   1.405       .  S
C1476      C1477   1.406       .  A
C1476      S1481   1.808       .  S
C1477      C1478   1.411       .  A
C1477      H1482   1.082       .  S
C1478      C1479   1.421       .  A
C1479      C1480   1.410       .  A
C1479      S1483   1.800       .  S
C1480      H1484   1.084       .  S
S1481      H1486   1.406       .  S
S1483      H1487   1.408       .  S
C1489      C1490   1.404       .  A
C1489      C1494   1.402       .  A
C1489      H1499   1.084       .  S
C1490      C1491   1.414       .  A
C1490      C1495   1.490       .  S
C1491      C1492   1.403       .  A
C1491      S1496   1.804       .  S
C1492      C1493   1.407       .  A
C1493      C1494   1.416       .  A
C1494      S1498   1.803       .  S
C1495      C1500   1.410       .  A
C1495      C1504   1.405       .  A
S1496      H1512   1.406       .  S
S1498      H1509   1.408       .  S
C1500      C1501   1.404       .  A
C1500      S1505   1.807       .  S
C1501      C1502   1.407       .  A
C1501      H1506   1.081       .  S
C1502      C1503   1.417       .  A
C1503      C1504   1.404       .  A
C1503      S1507   1.802       .  S
C1504      H1508   1.084       .  S
S1505      H1510   1.407       .  S
S1507      H1511   1.406       .  S
C1513      C1514   1.405       .  A
C1513      C1518   1.401       .  A
C1513      H1523   1.084       .  S
C1514      C1515   1.417       .  A
C1514      C1519   1.495       .  S
C1515      C1516   1.405       .  A
C1515      S1520   1.804       .  S
C1516      C1517   1.403       .  A
C1516      H1521   1.083       .  S
C1517      C1518   1.414       .  A
C1518      S1522   1.803       .  S
C1519      C1524   1.411       .  A
C1519      C1528   1.409       .  A
S1520      H1536   1.407       .  S
S1522      H1533   1.408       .  S
C1524      C1525   1.404       .  A
C1524      S1529   1.807       .  S
C1525      C1526   1.406       .  A
C1525      H1530   1.082   1_565  S
C1526      C1527   1.412       .  A
C1527      C1528   1.406       .  A
C1527      S3931   1.803       .  S
C1528      H1532   1.084       .  S
S1531      C3927   1.802       .  S
S1531      H1535   1.407       .  S
C1537      C1538   1.403       .  A
C1537      C1542   1.397       .  A
C1537      H1547   1.083       .  S
C1538      C1539   1.419       .  A
C1538      C1543   1.493       .  S
C1539      C1540   1.406       .  A
C1539      S1544   1.804       .  S
C1540      C1541   1.402       .  A
C1540      H1545   1.083       .  S
C1541      C1542   1.413       .  A
C1542      S1546   1.803       .  S
C1543      C1548   1.416       .  A
C1543      C1552   1.405       .  A
S1544      H1560   1.407       .  S
S1546      H1557   1.408       .  S
C1548      C1549   1.406       .  A
C1548      S1553   1.806       .  S
C1549      C1550   1.403       .  A
C1549      H1554   1.084   1_455  S
C1550      C1551   1.412       .  A
C1551      C1552   1.400       .  A
C1551      S1555   1.803       .  S
C1552      H1556   1.084       .  S
S1553      H3958   1.408   1_455  S
S1555      H1559   1.407       .  S
H1558      S3953   1.407       .  S
C1561      C1562   1.400       .  A
C1561      C1566   1.401       .  A
C1561      H1571   1.083       .  S
C1562      C1563   1.414       .  A
C1562      C1567   1.485       .  S
C1563      C1564   1.406       .  A
C1563      S1568   1.803       .  S
C1564      C1565   1.406       .  A
C1564      H1569   1.084       .  S
C1565      C1566   1.418       .  A
C1566      S1570   1.808       .  S
C1567      C1572   1.410       .  A
C1567      C1576   1.403       .  A
S1568      H1584   1.403       .  S
C1572      C1573   1.407       .  A
C1572      S1577   1.805       .  S
C1573      C1574   1.405       .  A
C1573      H1578   1.082       .  S
C1574      C1575   1.414       .  A
C1575      C1576   1.402       .  A
C1575      S1579   1.801       .  S
C1576      H1580   1.084       .  S
S1577      H1582   1.407       .  S
S1579      H1583   1.407       .  S
C1585      C1586   1.404       .  A
C1585      C1590   1.402       .  A
C1585      H1595   1.084       .  S
C1586      C1587   1.415       .  A
C1586      C1591   1.489       .  S
C1587      C1588   1.403       .  A
C1587      S1592   1.804       .  S
C1588      C1589   1.402       .  A
C1588      H1593   1.083       .  S
C1589      C1590   1.413       .  A
C1590      S1594   1.804       .  S
C1591      C1596   1.410       .  A
C1591      C1600   1.405       .  A
S1592      H1608   1.406       .  S
S1594      H1605   1.400       .  S
C1596      C1597   1.403       .  A
C1596      S1601   1.806       .  S
C1597      C1598   1.407       .  A
C1597      H1602   1.083       .  S
C1598      C1599   1.417       .  A
C1599      C1600   1.403       .  A
C1599      S1603   1.803       .  S
C1600      H1604   1.084       .  S
S1601      H1606   1.407       .  S
S1603      H1607   1.403   1_565  S
C1609      C1610   1.407       .  A
C1609      C1614   1.410       .  A
C1609      H1619   1.084       .  S
C1610      C1611   1.415       .  A
C1610      C1615   1.501       .  S
C1611      C1612   1.406       .  A
C1611      S1616   1.802       .  S
C1612      C1613   1.405       .  A
C1612      H1617   1.083       .  S
C1613      C1614   1.417       .  A
C1614      S1618   1.802       .  S
C1615      C1620   1.413       .  A
C1615      C1624   1.405       .  A
S1616      H1632   1.406       .  S
S1618      H1629   1.407       .  S
C1620      C1621   1.412       .  A
C1620      S1625   1.805       .  S
C1621      C1622   1.408       .  A
C1621      H1626   1.083       .  S
C1622      C1623   1.417       .  A
C1623      C1624   1.407       .  A
C1623      S1627   1.802       .  S
C1624      H1628   1.084       .  S
S1625      H1630   1.407       .  S
S1627      H1631   1.407       .  S
C1633      C1634   1.404       .  A
C1633      C1638   1.400       .  A
C1633      H1643   1.084       .  S
C1634      C1635   1.417       .  A
C1634      C1639   1.491       .  S
C1635      C1636   1.404       .  A
C1635      S1640   1.804       .  S
C1636      C1637   1.403       .  A
C1636      H1641   1.083       .  S
C1637      C1638   1.410       .  A
C1638      S1642   1.802       .  S
C1639      C1644   1.410       .  A
C1639      C1648   1.401       .  A
S1640      H1656   1.406       .  S
S1642      H1653   1.407       .  S
C1644      C1645   1.409       .  A
C1644      S1649   1.805       .  S
C1645      C1646   1.410       .  A
C1645      H1650   1.083       .  S
C1646      C1647   1.421       .  A
C1647      C1648   1.400       .  A
C1647      S1651   1.802       .  S
C1648      H1652   1.084       .  S
S1649      H1654   1.406       .  S
S1651      H1655   1.408       .  S
C1657      C1658   1.399       .  A
C1657      C1662   1.399       .  A
C1657      H1667   1.084       .  S
C1658      C1659   1.418       .  A
C1658      C1663   1.490       .  S
C1659      C1660   1.408       .  A
C1659      S1664   1.803       .  S
C1660      C1661   1.404       .  A
C1660      H1665   1.084       .  S
C1661      C1662   1.418       .  A
C1662      S1666   1.805       .  S
C1663      C1668   1.409       .  A
C1663      C1672   1.405       .  A
S1664      H1680   1.406       .  S
S1666      H1677   1.406       .  S
C1668      C1669   1.404       .  A
C1668      S1673   1.803       .  S
C1669      C1670   1.404       .  A
C1669      H1674   1.082       .  S
C1670      C1671   1.414       .  A
C1671      C1672   1.405       .  A
C1671      S1675   1.800       .  S
C1672      H1676   1.084       .  S
S1673      H1678   1.406       .  S
S1675      H1679   1.406       .  S
C1681      C1682   1.399       .  A
C1681      C1686   1.396       .  A
C1681      H1691   1.084       .  S
C1682      C1683   1.416       .  A
C1682      C1687   1.480       .  S
C1683      C1684   1.405       .  A
C1683      S1688   1.806       .  S
C1684      C1685   1.402       .  A
C1684      H1689   1.083       .  S
C1685      C1686   1.415       .  A
C1686      S2290   1.804       .  S
C1687      C2292   1.411       .  A
C1687      C1696   1.398       .  A
S1688      H1704   1.402       .  S
S1690      C2286   1.804   1_554  S
S1690      H1701   1.407       .  S
C1692      C2287   1.413       .  A
C1692      C2293   1.412       .  A
C1692      S1697   1.805   1_556  S
C1693      C2292   1.408       .  A
C1693      C1694   1.405       .  A
C1693      H2298   1.083       .  S
C1694      C1695   1.414       .  A
C1695      C1696   1.396       .  A
C1695      S1699   1.801       .  S
C1696      H1700   1.084       .  S
S1697      H1702   1.407       .  S
H1698      C2293   1.083       .  S
S1699      H1703   1.406       .  S
C1705      C2306   1.403       .  A
C1705      C1710   1.402       .  A
C1705      H1715   1.084       .  S
C1706      C2305   1.403       .  A
C1706      C1707   1.416       .  A
C1706      C1711   1.488       .  S
C1707      C1708   1.405       .  A
C1707      S1712   1.805       .  S
C1708      C1709   1.403       .  A
C1708      H1713   1.083       .  S
C1709      C2310   1.411       .  A
C1709      N1814   1.440       .  S
C1710      C2309   1.413       .  A
C1710      S1714   1.799       .  S
C1711      C1716   1.412       .  A
C1711      C1720   1.401       .  A
S1712      H1728   1.404       .  S
S1714      H1725   1.406       .  S
C1716      C1717   1.410       .  A
C1716      S1721   1.805       .  S
C1717      C1718   1.405       .  A
C1717      H1722   1.083       .  S
C1718      C1719   1.416       .  A
C1719      C1720   1.400       .  A
C1719      S1723   1.803       .  S
C1720      H1724   1.084       .  S
S1721      H1726   1.407       .  S
S1723      H1727   1.405       .  S
C1729      C1730   1.402       .  A
C1729      C1734   1.401       .  A
C1729      H1739   1.084       .  S
C1730      C2331   1.414       .  A
C1730      C1735   1.492       .  S
C1731      C2330   1.415       .  A
C1731      C1732   1.408       .  A
C1731      S1736   1.804       .  S
C1732      C2333   1.408   1_554  A
C1732      H1737   1.084       .  S
C1733      C2332   1.410       .  A
C1733      C1734   1.418       .  A
C1734      S1738   1.802       .  S
C1735      C1740   1.412       .  A
C1735      C2344   1.404       .  A
S1736      H1752   1.405       .  S
S1738      H1749   1.406       .  S
C1740      C1741   1.408       .  A
C1740      S1745   1.806       .  S
C1741      C1742   1.405       .  A
C1741      H1746   1.083       .  S
C1742      C2343   1.411       .  A
C1742      N1817   1.439       .  S
C1743      C2342   1.413       .  A
C1743      C1744   1.404       .  A
C1743      S1747   1.800       .  S
C1744      C2335   1.403       .  A
C1744      H1748   1.084       .  S
S1745      H1750   1.407       .  S
S1747      H1751   1.403       .  S
C1753      C1754   1.391       .  A
C1753      C1758   1.382       .  A
C1753      H1763   1.084       .  S
C1754      C1755   1.402       .  A
C1754      C1759   1.450       .  S
C1755      C1756   1.386       .  A
C1755      S1760   1.804       .  S
C1756      C1757   1.403       .  A
C1756      H1761   1.075       .  S
C1757      C1758   1.432       .  A
C1758      S1762   1.820       .  S
C1759      C1764   1.400       .  A
C1759      C1768   1.402       .  A
S1760      H1776   1.407       .  S
S1762      H1773   1.392       .  S
C1764      C1765   1.387       .  A
C1764      S1769   1.809       .  S
C1765      C1766   1.405       .  A
C1765      H1770   1.075       .  S
C1766      C1767   1.410       .  A
C1767      C1768   1.386       .  A
C1767      S1771   1.812       .  S
C1768      H1772   1.083       .  S
S1769      H1774   1.407       .  S
S1771      H1775   1.406       .  S
C1777      C1778   1.383       .  A
C1777      C1782   1.385       .  A
C1777      H1787   1.085       .  S
C1778      C1779   1.405       .  A
C1778      C1783   1.440       .  S
C1779      C1780   1.381       .  A
C1779      S1784   1.806       .  S
C1780      C1781   1.402       .  A
C1780      H1785   1.078       .  S
C1781      C1782   1.436       .  A
C1782      S1786   1.813       .  S
C1783      C1788   1.396       .  A
C1783      C1792   1.393       .  A
S1784      H1800   1.405       .  S
S1786      H1797   1.394   1_554  S
C1788      C1789   1.389       .  A
C1788      S1793   1.804       .  S
C1789      C1790   1.406       .  A
C1789      H1794   1.076       .  S
C1790      C1791   1.424       .  A
C1791      C1792   1.381       .  A
C1791      S1795   1.815       .  S
C1792      H1796   1.085       .  S
S1793      H1798   1.407       .  S
S1795      H1799   1.393       .  S
C1801      C1803   1.562       .  S
C1801      C1805   1.529       .  S
C1801      C1804   1.547       .  S
C1801      C2357   1.503       .  S
C1802      C1806   1.523       .  S
C1802      C1808   1.557       .  S
C1802      C1807   1.532       .  S
C1802      C2381   1.501       .  S
C1803      C1811   1.403       .  A
C1804      C1815   1.388       .  A
C1805      C1819   1.372       .  A
C1806      C1809   1.366       .  A
C1807      C1813   1.382       .  A
C1808      C1816   1.398       .  A
C1809      H1822   1.083       .  S
N1810      C1811   1.367       .  A
N1810      C2285   1.444       .  S
C1811      H1812   1.080       .  S
C1813      H1823   1.082       .  S
C1813      N1814   1.355       .  A
C1815      H1821   1.082       .  S
C1816      H1818   1.081       .  S
C1816      N1817   1.364       .  A
C1819      H1820   1.083       .  S
C1824      C1826   1.556       .  S
C1824      C1828   1.548       .  S
C1824      C1827   1.519       .  S
C1824      C2390   1.504       .  S
C1825      C1829   1.548       .  S
C1825      C1831   1.547       .  S
C1825      C1830   1.534       .  S
C1825      C2366   1.504       .  S
C1826      C1834   1.391       .  A
C1826      C1829   1.391       .  A
C1827      C1838   1.369       .  A
C1827      C1830   1.376       .  A
C1828      C1842   1.391       .  A
C1828      C1831   1.389       .  A
C1829      C1832   1.386       .  A
C1830      C1836   1.387       .  A
C1831      C1839   1.384       .  A
C1832      H1845   1.082       .  S
C1832      N1833   1.358       .  A
N1833      C1834   1.359       .  A
N1833      C2213   1.449       .  S
C1834      H1835   1.080       .  S
C1836      H1846   1.082       .  S
C1836      N1837   1.361       .  A
N1837      C1838   1.352       .  A
N1837      C2237   1.434       .  S
C1838      H1844   1.083       .  S
C1839      H1841   1.081       .  S
C1839      N1840   1.350       .  A
N1840      C1842   1.360       .  A
N1840      C2270   1.441       .  S
C1842      H1843   1.082       .  S
O1847     Zr1859   2.466       .  S
O1847      C1849   1.295       .  A
O1848     Zr1885   2.447       .  S
O1848      C1849   1.293       .  A
C1849      C2198   1.492       .  S
O1850     Zr1862   2.440       .  S
O1850      C1852   1.288       .  A
O1851     Zr1886   2.431       .  S
O1851      C4252   1.288       .  A
C1852      O4251   1.288       .  A
C1852      C2150   1.472       .  S
O1853     Zr1862   2.466       .  S
O1853      C1855   1.293       .  A
O1854      C1855   1.288       .  A
C1855      C2333   1.488       .  S
O1856     Zr3059   2.591       .  S
O1856      C1858   1.317       .  A
O1857     Zr1886   2.570       .  S
O1857      C1858   1.313       .  A
Zr1859     O3056   2.584   1_565  S
Zr1859     O4261   2.432   1_455  S
Zr1859     O4289   2.368   1_455  S
Zr1859     O4291   2.409   1_455  S
O1860      H1903   0.990       .  S
O1861     Zr4259   2.432       .  S
O1861      H1902   0.990       .  S
O1861      H1906   0.990       .  S
Zr1862     O1863   2.437       .  S
Zr1862     O1864   2.437       .  S
Zr1862     O1866   2.401       .  S
Zr1862     O1865   2.354       .  S
Zr1862     O1890   2.386       .  S
Zr1862     O4292   2.366       .  S
O1863      H1904   0.990       .  S
O1863      H1907   0.990       .  S
O1864      H1897   0.990       .  S
O1866     Zr4286   2.384   1_455  S
O1866      H1893   0.965       .  S
O1867     Zr1879   2.434       .  S
O1867      C1869   1.286       .  A
O1868     Zr1886   2.446       .  S
C1869      C2165   1.496       .  S
O1871      C4272   1.318   1_465  A
C1872      O4271   1.320   1_545  A
O1873     Zr1882   2.489       .  S
O1873      C1875   1.299       .  A
O1874     Zr1886   2.421       .  S
O1874      C1875   1.288       .  A
C1875      C2294   1.490       .  S
O1876     Zr1879   2.440       .  S
O1876      C1878   1.286       .  A
O1877     Zr4285   2.440       .  S
O1877      C1878   1.288       .  A
C1878      C2318   1.474       .  S
Zr1879     O1880   2.435       .  S
Zr1879     O1881   2.434       .  S
Zr1879     O1887   2.363   1_565  S
Zr1879     O1888   2.388       .  S
Zr1879     O1891   2.359       .  S
Zr1879     O1889   2.397       .  S
O1880      H1900   0.990       .  S
O1880      H1905   0.990       .  S
O1881      H1901   0.990       .  S
Zr1882     O1892   2.393       .  S
Zr1882     O4290   2.372       .  S
O1883      H1899   0.990   1_565  S
O1884      H4298   0.990       .  S
O1884      H1908   0.990       .  S
Zr1885     O4277   2.454   1_455  S
Zr1885     O4288   2.377   1_455  S
Zr1885     O4291   2.425   1_455  S
Zr1886     O4266   2.385       .  S
Zr1886     O1892   2.414       .  S
O1887      H1895   0.965   1_545  S
O1888     Zr4285   2.378       .  S
O1889     Zr4259   2.367       .  S
O1890     Zr4282   2.374   1_455  S
O1891     Zr4259   2.417       .  S
O1891     Zr4285   2.424       .  S
O1891      H1896   0.965       .  S
O1892     Zr4262   2.363       .  S
H1898      O4284   0.990       .  S
O1909     Zr1921   2.504       .  S
O1909      C1911   1.302       .  A
O1910     Zr1947   2.396       .  S
O1910      C1911   1.284       .  A
C1911      C2126   1.490       .  S
O1912     Zr1924   2.453       .  S
O1912      C1914   1.289       .  A
O1913     Zr1948   2.441       .  S
O1913      C4314   1.290       .  A
C1914      O4313   1.288       .  A
C1914      C2078   1.497       .  S
O1915     Zr1924   2.439       .  S
O1915      C1917   1.287       .  A
O1916      C1917   1.291       .  A
C1917      C2261   1.486       .  S
O1918      C4320   1.312   1_455  A
O1919     Zr1948   2.581       .  S
O1919      C1920   1.316       .  A
C1920      O4318   1.315       .  A
Zr1921     O4323   2.435   1_455  S
Zr1921     O4351   2.381   1_455  S
Zr1921     O4353   2.416   1_455  S
O1922      H1965   0.990       .  S
O1923     Zr4321   2.435       .  S
O1923      H1964   0.990       .  S
O1923      H1968   0.990       .  S
Zr1924     O1925   2.437       .  S
Zr1924     O1926   2.436       .  S
Zr1924     O1928   2.392       .  S
Zr1924     O1927   2.358       .  S
Zr1924     O1952   2.401       .  S
Zr1924     O4354   2.356       .  S
O1925      H1966   0.990       .  S
O1925      H1969   0.990       .  S
O1926      H1959   0.990       .  S
O1928     Zr4348   2.383   1_455  S
O1928      H1955   0.966       .  S
O1929     Zr1941   2.447       .  S
O1929      C1931   1.289       .  A
O1930     Zr1948   2.448       .  S
C1931      C2093   1.489       .  S
O1932     Zr1944   2.611       .  S
O1933     Zr1947   2.548   1_545  S
O1933      C4334   1.308   1_455  A
C1934      O4333   1.312       .  A
O1935     Zr1944   2.501       .  S
O1935      C1937   1.302       .  A
O1936     Zr1948   2.436       .  S
O1936      C1937   1.291       .  A
C1937      C2222   1.503       .  S
O1938     Zr1941   2.443       .  S
O1938      C1940   1.289       .  A
O1939     Zr4347   2.424   1_565  S
O1939      C1940   1.287       .  A
C1940      C2246   1.480       .  S
Zr1941     O1942   2.436       .  S
Zr1941     O1943   2.434       .  S
Zr1941     O1949   2.357   1_565  S
Zr1941     O1950   2.391       .  S
Zr1941     O1953   2.362       .  S
Zr1941     O1951   2.391       .  S
O1942      H1962   0.990       .  S
O1942      H1967   0.990       .  S
O1943      H1963   0.990       .  S
Zr1944     O1946   2.435       .  S
Zr1944     O1954   2.420       .  S
Zr1944     O4352   2.380       .  S
O1945      H1961   0.990   1_545  S
O1946      H4360   0.990       .  S
O1946      H1970   0.990       .  S
Zr1947     O4339   2.426   1_455  S
Zr1947     O4350   2.372   1_455  S
Zr1947     O4353   2.425   1_455  S
Zr1948     O4328   2.380       .  S
Zr1948     O1954   2.424       .  S
O1949      H1957   0.965       .  S
O1950     Zr4347   2.376   1_565  S
O1951     Zr4321   2.376       .  S
O1952     Zr4344   2.378   1_455  S
O1952      H1956   0.966       .  S
O1953     Zr4321   2.407       .  S
O1953     Zr4347   2.424   1_565  S
O1953      H1958   0.965       .  S
O1954     Zr4324   2.362       .  S
H1960      O4346   0.990   1_455  S
C1971      C1973   1.550       .  S
C1971      C1975   1.550       .  S
C1971      C1974   1.521       .  S
C1971      C2021   1.501       .  S
C1972      C1976   1.526       .  S
C1972      C1978   1.554       .  S
C1972      C1977   1.539       .  S
C1972      C2045   1.499       .  S
C1973      C1981   1.391       .  A
C1973      C1976   1.378       .  A
C1974      C1985   1.373       .  A
C1974      C1977   1.370       .  A
C1975      C1989   1.384       .  A
C1975      C1978   1.404       .  A
C1976      C1979   1.377       .  A
C1977      C1983   1.390       .  A
C1978      C1986   1.380       .  A
C1979      H1992   1.083       .  S
C1979      N1980   1.352       .  A
N1980      C1981   1.360       .  A
N1980      C2189   1.437       .  S
C1981      H1982   1.082       .  S
C1983      H1993   1.082       .  S
C1983      N1984   1.360       .  A
N1984      C1985   1.353       .  A
N1984      C2141   1.440       .  S
C1985      H1991   1.083       .  S
C1986      H1988   1.080       .  S
C1986      N1987   1.356       .  A
N1987      C1989   1.358       .  A
N1987      C2174   1.440       .  S
C1989      H1990   1.081       .  S
C1994      C1996   1.551       .  S
C1994      C1998   1.546       .  S
C1994      C1997   1.549       .  S
C1994      C2054   1.513       .  S
C1995      C1999   1.528       .  S
C1995      C2001   1.552       .  S
C1995      C2000   1.526       .  S
C1995      C2030   1.496       .  S
C1996      C2004   1.384       .  A
C1996      C1999   1.381       .  A
C1997      C2008   1.395       .  A
C1997      C2000   1.381       .  A
C1998      C2012   1.384       .  A
C1998      C2001   1.391       .  A
C1999      C2002   1.387       .  A
C2000      C2006   1.371       .  A
C2001      C2009   1.384       .  A
C2002      H2015   1.082       .  S
C2002      N2003   1.356       .  A
N2003      C2004   1.349       .  A
N2003      C2117   1.437       .  S
C2004      H2005   1.081       .  S
C2006      H2016   1.082       .  S
C2006      N2007   1.348       .  A
N2007      C2008   1.365       .  A
N2007      C2069   1.438       .  S
C2008      H2014   1.082       .  S
C2009      H2011   1.081       .  S
C2009      N2010   1.359       .  A
N2010      C2012   1.360       .  A
N2010      C2102   1.449       .  S
C2012      H2013   1.082       .  S
C2017      C2018   1.399       .  A
C2017      C2022   1.393       .  A
C2017      H2027   1.084       .  S
C2018      C2019   1.401       .  A
C2018      C2023   1.450       .  S
C2019      C2020   1.381       .  A
C2019      S2024   1.808       .  S
C2020      C2021   1.408       .  A
C2020      H2025   1.081       .  S
C2021      C2022   1.420       .  A
C2022      S2026   1.804       .  S
C2023      C2028   1.416       .  A
C2023      C2032   1.394       .  A
S2024      H2040   1.407       .  S
S2026      H2037   1.400       .  S
C2028      C2029   1.384       .  A
C2028      S2033   1.813       .  S
C2029      C2030   1.394       .  A
C2029      H2034   1.078       .  S
C2030      C2031   1.416       .  A
C2031      C2032   1.387       .  A
C2031      S2035   1.811       .  S
C2032      H2036   1.083       .  S
S2033      H2038   1.407       .  S
S2035      H2039   1.406       .  S
C2041      C2042   1.396   1_556  A
C2041      C2046   1.373       .  A
C2041      H2051   1.084   1_556  S
C2042      C2043   1.402   1_554  A
C2043      C2044   1.392       .  A
C2043      S2048   1.802   1_556  S
C2044      C2045   1.407       .  A
C2044      H2049   1.074       .  S
C2045      C2046   1.425       .  A
C2046      S2050   1.823       .  S
C2047      C2052   1.399       .  A
C2047      C2056   1.404       .  A
S2050      H2061   1.391       .  S
C2052      C2053   1.380       .  A
C2052      S2057   1.811       .  S
C2053      C2054   1.405       .  A
C2053      H2058   1.079       .  S
C2054      C2055   1.419       .  A
C2055      C2056   1.394       .  A
C2055      S2059   1.811       .  S
C2056      H2060   1.084       .  S
S2057      H2062   1.407       .  S
S2059      H2063   1.395       .  S
C2065      C2066   1.402       .  A
C2065      C2070   1.403       .  A
C2065      H2075   1.084       .  S
C2066      C2067   1.414       .  A
C2066      C2071   1.489       .  S
C2067      C2068   1.404       .  A
C2067      S2072   1.803       .  S
C2068      C2069   1.402       .  A
C2068      H2073   1.083       .  S
C2069      C2070   1.416       .  A
C2070      S2074   1.803       .  S
C2071      C2076   1.410       .  A
C2071      C2080   1.402       .  A
S2072      H2088   1.406       .  S
S2074      H2085   1.404       .  S
C2076      C2077   1.404       .  A
C2076      S2081   1.808       .  S
C2077      C2078   1.408       .  A
C2077      H2082   1.082       .  S
C2078      C2079   1.420       .  A
C2079      C2080   1.406       .  A
C2079      S2083   1.800       .  S
C2080      H2084   1.084       .  S
S2081      H2086   1.407       .  S
S2083      H2087   1.408       .  S
C2089      C2090   1.404       .  A
C2089      C2094   1.402       .  A
C2089      H2099   1.084       .  S
C2090      C2091   1.416       .  A
C2090      C2095   1.494       .  S
C2091      C2092   1.405       .  A
C2091      S2096   1.804       .  S
C2092      C2093   1.406       .  A
C2093      C2094   1.416       .  A
C2094      S2098   1.803       .  S
C2095      C2100   1.412       .  A
C2095      C2104   1.404       .  A
S2096      H2112   1.406       .  S
S2098      H2109   1.407       .  S
C2100      C2101   1.407       .  A
C2100      S2105   1.807       .  S
C2101      C2102   1.406       .  A
C2101      H2106   1.082       .  S
C2102      C2103   1.418       .  A
C2103      C2104   1.403       .  A
C2103      S2107   1.803       .  S
C2104      H2108   1.084       .  S
S2105      H2110   1.407       .  S
S2107      H2111   1.407       .  S
C2113      C2114   1.405       .  A
C2113      C2118   1.401       .  A
C2113      H2123   1.084       .  S
C2114      C2115   1.417       .  A
C2114      C2119   1.493       .  S
C2115      C2116   1.404       .  A
C2115      S2120   1.803       .  S
C2116      C2117   1.402       .  A
C2116      H2121   1.083       .  S
C2117      C2118   1.410       .  A
C2118      S2122   1.802       .  S
C2119      C2124   1.410       .  A
C2119      C2128   1.408       .  A
S2120      H2136   1.406       .  S
S2122      H2133   1.407       .  S
C2124      C2125   1.403       .  A
C2124      S2129   1.808       .  S
C2125      C2126   1.411       .  A
C2125      H2130   1.083       .  S
C2126      C2127   1.413       .  A
C2127      C2128   1.406       .  A
C2127      S4531   1.800       .  S
C2128      H2132   1.084       .  S
S2131      C4527   1.801       .  S
S2131      H2135   1.407       .  S
C2137      C2138   1.402       .  A
C2137      C2142   1.398       .  A
C2137      H2147   1.084       .  S
C2138      C2139   1.416       .  A
C2138      C2143   1.486       .  S
C2139      C2140   1.403       .  A
C2139      S2144   1.803       .  S
C2140      C2141   1.403       .  A
C2140      H2145   1.083       .  S
C2141      C2142   1.414       .  A
C2142      S2146   1.803       .  S
C2143      C2148   1.412       .  A
C2143      C2152   1.404       .  A
S2144      H2160   1.407       .  S
S2146      H2157   1.407       .  S
C2148      C2149   1.404       .  A
C2148      S2153   1.804       .  S
C2149      C2150   1.403       .  A
C2149      H2154   1.084       .  S
C2150      C2151   1.410       .  A
C2151      C2152   1.399       .  A
C2151      S2155   1.803       .  S
C2152      H2156   1.084       .  S
S2153      H4558   1.407   1_455  S
S2155      H2159   1.407       .  S
H2158      S4553   1.407       .  S
C2161      C2162   1.398       .  A
C2161      C2166   1.402       .  A
C2161      H2171   1.083       .  S
C2162      C2163   1.411       .  A
C2162      C2167   1.485       .  S
C2163      C2164   1.405       .  A
C2163      S2168   1.802       .  S
C2164      C2165   1.409       .  A
C2164      H2169   1.083       .  S
C2165      C2166   1.422       .  A
C2166      S2170   1.810       .  S
C2167      C2172   1.411       .  A
C2167      C2176   1.402       .  A
S2168      H2184   1.406       .  S
C2172      C2173   1.407       .  A
C2172      S2177   1.805       .  S
C2173      C2174   1.404       .  A
C2173      H2178   1.082       .  S
C2174      C2175   1.413       .  A
C2175      C2176   1.401       .  A
C2175      S2179   1.802       .  S
C2176      H2180   1.084       .  S
S2177      H2182   1.407       .  S
S2179      H2183   1.407       .  S
C2185      C2186   1.403       .  A
C2185      C2190   1.400       .  A
C2185      H2195   1.084       .  S
C2186      C2187   1.416       .  A
C2186      C2191   1.485       .  S
C2187      C2188   1.405       .  A
C2187      S2192   1.807       .  S
C2188      C2189   1.402       .  A
C2188      H2193   1.083       .  S
C2189      C2190   1.411       .  A
C2190      S2194   1.803       .  S
C2191      C2196   1.408       .  A
C2191      C2200   1.402       .  A
S2192      H2208   1.402       .  S
S2194      H2205   1.403       .  S
C2196      C2197   1.405       .  A
C2196      S2201   1.806       .  S
C2197      C2198   1.408       .  A
C2197      H2202   1.083       .  S
C2198      C2199   1.419       .  A
C2199      C2200   1.403       .  A
C2199      S2203   1.800       .  S
C2200      H2204   1.084       .  S
S2201      H2206   1.407       .  S
S2203      H2207   1.404   1_565  S
C2209      C2210   1.407       .  A
C2209      C2214   1.408       .  A
C2209      H2219   1.084       .  S
C2210      C2211   1.417       .  A
C2210      C2215   1.499       .  S
C2211      C2212   1.406       .  A
C2211      S2216   1.805       .  S
C2212      C2213   1.405       .  A
C2212      H2217   1.083       .  S
C2213      C2214   1.415       .  A
C2214      S2218   1.801       .  S
C2215      C2220   1.413       .  A
C2215      C2224   1.402       .  A
S2216      H2232   1.405       .  S
S2218      H2229   1.407       .  S
C2220      C2221   1.412       .  A
C2220      S2225   1.805       .  S
C2221      C2222   1.408       .  A
C2221      H2226   1.082       .  S
C2222      C2223   1.422       .  A
C2223      C2224   1.406       .  A
C2223      S2227   1.801       .  S
C2224      H2228   1.084       .  S
S2225      H2230   1.407       .  S
S2227      H2231   1.406       .  S
C2233      C2234   1.401       .  A
C2233      C2238   1.398       .  A
C2233      H2243   1.084       .  S
C2234      C2235   1.412       .  A
C2234      C2239   1.478       .  S
C2235      C2236   1.402       .  A
C2235      S2240   1.804       .  S
C2236      C2237   1.402       .  A
C2236      H2241   1.083       .  S
C2237      C2238   1.411       .  A
C2238      S2242   1.802       .  S
C2239      C2244   1.406       .  A
C2239      C2248   1.399       .  A
S2240      H2256   1.406       .  S
S2242      H2253   1.407       .  S
C2244      C2245   1.405       .  A
C2244      S2249   1.801       .  S
C2245      C2246   1.407       .  A
C2245      H2250   1.083       .  S
C2246      C2247   1.416       .  A
C2247      C2248   1.396       .  A
C2247      S2251   1.803       .  S
C2248      H2252   1.084       .  S
S2249      H2254   1.404       .  S
S2251      H2255   1.408       .  S
C2257      C2258   1.401       .  A
C2257      C2262   1.400       .  A
C2257      H2267   1.084       .  S
C2258      C2259   1.418       .  A
C2258      C2263   1.488       .  S
C2259      C2260   1.407       .  A
C2259      S2264   1.807       .  S
C2260      C2261   1.403       .  A
C2260      H2265   1.084       .  S
C2261      C2262   1.417       .  A
C2262      S2266   1.805       .  S
C2263      C2268   1.410       .  A
C2263      C2272   1.403       .  A
S2264      H2280   1.403       .  S
S2266      H2277   1.406       .  S
C2268      C2269   1.408       .  A
C2268      S2273   1.805       .  S
C2269      C2270   1.405       .  A
C2269      H2274   1.082       .  S
C2270      C2271   1.414       .  A
C2271      C2272   1.402       .  A
C2271      S2275   1.801       .  S
C2272      H2276   1.084       .  S
S2273      H2278   1.407       .  S
S2275      H2279   1.405       .  S
C2281      C2282   1.400       .  A
C2281      C2286   1.398       .  A
C2281      H2291   1.084   1_556  S
C2282      C2283   1.417       .  A
C2282      C2287   1.487       .  S
C2283      C2284   1.408       .  A
C2283      S2288   1.804       .  S
C2284      C2285   1.404       .  A
C2284      H2289   1.083       .  S
C2285      C2286   1.418       .  A
C2287      C2296   1.396       .  A
S2288      H2304   1.405       .  S
S2290      H2301   1.406       .  S
C2292      S2297   1.805       .  S
C2293      C2294   1.407       .  A
C2294      C2295   1.418       .  A
C2295      C2296   1.396       .  A
C2295      S2299   1.797       .  S
C2296      H2300   1.084       .  S
S2297      H2302   1.407       .  S
S2299      H2303   1.406       .  S
C2305      C2310   1.403       .  A
C2305      H2315   1.084       .  S
C2306      C2307   1.415       .  A
C2306      C2311   1.487       .  S
C2307      C2308   1.403       .  A
C2307      S2312   1.804       .  S
C2308      C2309   1.402       .  A
C2308      H2313   1.083       .  S
C2310      S2314   1.800       .  S
C2311      C2316   1.414   1_556  A
C2311      C2320   1.401       .  A
S2312      H2328   1.406       .  S
S2314      H2325   1.405       .  S
C2316      C2317   1.409       .  A
C2316      S2321   1.806       .  S
C2317      C2318   1.403   1_554  A
C2317      H2322   1.083       .  S
C2318      C2319   1.411       .  A
C2319      C2320   1.398       .  A
C2319      S2323   1.801       .  S
C2320      H2324   1.084       .  S
S2321      H2326   1.407       .  S
S2323      H2327   1.402       .  S
C2329      C2330   1.404   1_556  A
C2329      C2334   1.402       .  A
C2329      H2339   1.084       .  S
C2330      C2335   1.492       .  S
C2331      C2332   1.408       .  A
C2331      S2336   1.805       .  S
C2332      H2337   1.084       .  S
C2333      C2334   1.415       .  A
C2334      S2338   1.805       .  S
C2335      C2340   1.411       .  A
S2336      H2352   1.405       .  S
S2338      H2349   1.406       .  S
C2340      C2341   1.410       .  A
C2340      S2345   1.805       .  S
C2341      C2342   1.406       .  A
C2341      H2346   1.082       .  S
C2343      C2344   1.402       .  A
C2343      S2347   1.799       .  S
C2344      H2348   1.084       .  S
S2345      H2350   1.407       .  S
S2347      H2351   1.403       .  S
C2353      C2354   1.391       .  A
C2353      C2358   1.381       .  A
C2353      H2363   1.084       .  S
C2354      C2355   1.404       .  A
C2354      C2359   1.453       .  S
C2355      C2356   1.388       .  A
C2355      S2360   1.803       .  S
C2356      C2357   1.403       .  A
C2356      H2361   1.075       .  S
C2357      C2358   1.433       .  A
C2358      S2362   1.822       .  S
C2359      C2364   1.403       .  A
C2359      C2368   1.402       .  A
S2360      H2376   1.407       .  S
S2362      H2373   1.392       .  S
C2364      C2365   1.389       .  A
C2364      S2369   1.809       .  S
C2365      C2366   1.405       .  A
C2365      H2370   1.077       .  S
C2366      C2367   1.410       .  A
C2367      C2368   1.387       .  A
C2367      S2371   1.809       .  S
C2368      H2372   1.084       .  S
S2369      H2374   1.407       .  S
S2371      H2375   1.407       .  S
C2377      C2378   1.386       .  A
C2377      C2382   1.387       .  A
C2377      H2387   1.085       .  S
C2378      C2379   1.406       .  A
C2378      C2383   1.442       .  S
C2379      C2380   1.380       .  A
C2379      S2384   1.807       .  S
C2380      C2381   1.400       .  A
C2380      H2385   1.077       .  S
C2381      C2382   1.434       .  A
C2382      S2386   1.814       .  S
C2383      C2388   1.396       .  A
C2383      C2392   1.394       .  A
S2384      H2400   1.405       .  S
S2386      H2397   1.394       .  S
C2388      C2389   1.389       .  A
C2388      S2393   1.804       .  S
C2389      C2390   1.407       .  A
C2389      H2394   1.077       .  S
C2390      C2391   1.423       .  A
C2391      C2392   1.384       .  A
C2391      S2395   1.813       .  S
C2392      H2396   1.085       .  S
S2393      H2398   1.407       .  S
S2395      H2399   1.394       .  S
C2401      C2403   1.557       .  S
C2401      C2405   1.527       .  S
C2401      C2404   1.544       .  S
C2401      C2957   1.506       .  S
C2402      C2406   1.529   1_554  S
C2402      C2408   1.555       .  S
C2402      C2407   1.538       .  S
C2402      C2981   1.503       .  S
C2403      C2411   1.398       .  A
C2403      C3006   1.390       .  A
C2404      C2415   1.384       .  A
C2404      C3007   1.380       .  A
C2405      C2419   1.370       .  A
C2405      C3008   1.385       .  A
C2406      C3003   1.390       .  A
C2406      C2409   1.368   1_556  A
C2407      C3004   1.382   1_554  A
C2407      C2413   1.385       .  A
C2408      C3005   1.382   1_554  A
C2408      C2416   1.398       .  A
C2409      H2422   1.083       .  S
C2409      N3010   1.349   1_554  A
N2410      C3009   1.349       .  A
N2410      C2411   1.364       .  A
N2410      C2885   1.440       .  S
C2411      H2412   1.080       .  S
C2413      H2423   1.082       .  S
C2413      N2414   1.360   1_554  A
N2414      C3015   1.359       .  A
N2414      C3509   1.447       .  S
C2415      H2421   1.082       .  S
C2415      N3014   1.360       .  A
C2416      H2418   1.081       .  S
C2416      N2417   1.364       .  A
N2417      C3019   1.347   1_554  A
N2417      C3542   1.437       .  S
C2419      H2420   1.083       .  S
C2419      N3017   1.348       .  A
C2424      C2426   1.555       .  S
C2424      C2428   1.546       .  S
C2424      C2427   1.521       .  S
C2424      C2990   1.502       .  S
C2425      C2429   1.546       .  S
C2425      C2431   1.549       .  S
C2425      C2430   1.532       .  S
C2425      C2966   1.506       .  S
C2426      C2434   1.392       .  A
C2426      C2429   1.395       .  A
C2427      C2438   1.372       .  A
C2427      C2430   1.375       .  A
C2428      C2442   1.390       .  A
C2428      C2431   1.387       .  A
C2429      C2432   1.383       .  A
C2430      C2436   1.387       .  A
C2431      C2439   1.384       .  A
C2432      H2445   1.082       .  S
C2432      N2433   1.355       .  A
N2433      C2434   1.360       .  A
N2433      C2813   1.450       .  S
C2434      H2435   1.080       .  S
C2436      H2446   1.082       .  S
C2436      N2437   1.360       .  A
N2437      C2438   1.353       .  A
N2437      C2837   1.434       .  S
C2438      H2444   1.083       .  S
C2439      H2441   1.081       .  S
C2439      N2440   1.353       .  A
N2440      C2442   1.359       .  A
N2440      C2870   1.442       .  S
C2442      H2443   1.081       .  S
O2447     Zr2459   2.456       .  S
O2447      C2449   1.294       .  A
O2448     Zr2485   2.440       .  S
O2448      C2449   1.291       .  A
C2449      C2798   1.497       .  S
O2450     Zr2462   2.441       .  S
O2450      C2452   1.288       .  A
O2451     Zr2486   2.432   1_455  S
C2452      C2750   1.474       .  S
O2453     Zr2462   2.463       .  S
O2453      C2455   1.292       .  A
O2454     Zr3685   2.423   1_545  S
O2454      C2455   1.287       .  A
C2455      C2933   1.489       .  S
O2456      C2458   1.316   1_455  A
O2457     Zr2486   2.579       .  S
O2457      C2458   1.315       .  A
C2458      C3734   1.614       .  S
Zr2459     O3660   2.435       .  S
Zr2459     O3665   2.412       .  S
Zr2459     O3666   2.363       .  S
O2460     Zr3659   2.434   1_545  S
O2460      H2503   0.990       .  S
O2461      H2502   0.990       .  S
O2461      H2506   0.990   1_655  S
Zr2462     O2463   2.437       .  S
Zr2462     O2464   2.434       .  S
Zr2462     O2466   2.398       .  S
Zr2462     O2465   2.353       .  S
Zr2462     O2490   2.386       .  S
O2463      H2504   0.990       .  S
O2463      H2507   0.990       .  S
O2464      H2497   0.990       .  S
O2465     Zr3659   2.416   1_545  S
O2465     Zr3685   2.428   1_545  S
O2466     Zr3659   2.357   1_545  S
O2466      H2493   0.965       .  S
O2467     Zr2479   2.448       .  S
O2467      C2469   1.288       .  A
O2468     Zr2486   2.441   1_565  S
O2468      C3669   1.291       .  A
C2469      O3668   1.291       .  A
C2469      C2765   1.502       .  S
O2470     Zr3082   2.553   1_554  S
O2470      C3672   1.308       .  A
O2471     Zr3085   2.580   1_554  S
C2472      O3670   1.310       .  A
C2472      C3720   1.610       .  S
O2473     Zr2482   2.474       .  S
O2473      C2475   1.295       .  A
O2474     Zr2486   2.429       .  S
O2474      C2475   1.290       .  A
C2475      C2894   1.478       .  S
O2476     Zr2479   2.446       .  S
O2476      C2478   1.288       .  A
O2477      C2478   1.291       .  A
C2478      C2918   1.483       .  S
Zr2479     O2480   2.434       .  S
Zr2479     O2481   2.435       .  S
Zr2479     O2487   2.355       .  S
Zr2479     O2488   2.393       .  S
Zr2479     O2491   2.356       .  S
Zr2479     O2489   2.396       .  S
O2480      H2500   0.990       .  S
O2480      H2505   0.990       .  S
O2481      H2501   0.990       .  S
Zr2482     O3070   2.572       .  S
Zr2482     O4283   2.434   1_545  S
Zr2482     O3084   2.433       .  S
Zr2482     O3688   2.377   1_545  S
Zr2482     O3687   2.411   1_545  S
Zr2482     O2492   2.403       .  S
O2483     Zr4282   2.434   1_554  S
O2483      H2499   0.990       .  S
O2484     Zr3082   2.431   1_554  S
O2484      H2508   0.990   1_655  S
Zr2485     O3654   2.430       .  S
Zr2485     O3071   2.588       .  S
Zr2485     O3665   2.426       .  S
Zr2485     O3690   2.380       .  S
Zr2486     O3687   2.423   1_545  S
Zr2486     O3689   2.374   1_545  S
Zr2486     O2492   2.420       .  S
O2487     Zr3682   2.406       .  S
O2487     Zr3686   2.421       .  S
O2487      H2495   0.964       .  S
O2488     Zr3682   2.378       .  S
O2489     Zr3686   2.381       .  S
O2490     Zr3685   2.383   1_545  S
O2490      H3094   0.966       .  S
O2491      H2496   0.965       .  S
H2494      O3090   0.967   1_554  S
O2509     Zr2521   2.491       .  S
O2509      C2511   1.299       .  A
O2510     Zr2547   2.402       .  S
O2510      C2511   1.285       .  A
C2511      C2726   1.484       .  S
O2512     Zr2524   2.459       .  S
O2512      C2514   1.290       .  A
O2513     Zr2548   2.456   1_455  S
C2514      C2678   1.498       .  S
O2515     Zr2524   2.444       .  S
O2515      C2517   1.288       .  A
O2516     Zr3747   2.459       .  S
O2516      C2517   1.293       .  A
C2517      C2861   1.494       .  S
O2518     Zr3721   2.579   1_545  S
O2519     Zr2548   2.582       .  S
O2519      C2520   1.318       .  A
C2520      C3672   1.599       .  S
Zr2521     O3718   2.569       .  S
Zr2521     O3722   2.435       .  S
Zr2521     O3727   2.396       .  S
Zr2521     O3728   2.379       .  S
O2522     Zr3721   2.434   1_545  S
O2522      H2565   0.990       .  S
O2523      H2564   0.990       .  S
O2523      H2568   0.990   1_655  S
Zr2524     O2525   2.437       .  S
Zr2524     O2526   2.435       .  S
Zr2524     O2528   2.394       .  S
Zr2524     O2527   2.355       .  S
Zr2524     O2552   2.402       .  S
O2525      H2566   0.990       .  S
O2525      H2569   0.990       .  S
O2526      H2559   0.990       .  S
O2527     Zr3721   2.395   1_545  S
O2527     Zr3747   2.408       .  S
O2528     Zr3721   2.377   1_545  S
O2528      H2555   0.966       .  S
O2529     Zr2541   2.438       .  S
O2529      C2531   1.287       .  A
O2530     Zr2548   2.455   1_565  S
O2530      C3731   1.293       .  A
C2531      O3730   1.293       .  A
C2531      C2693   1.496       .  S
O2532     Zr2544   2.598       .  S
O2532      C3734   1.318       .  A
O2533     Zr2547   2.566       .  S
C2534      O3732   1.318       .  A
C2534      C3658   1.608       .  S
O2535     Zr2544   2.488       .  S
O2535      C2537   1.299       .  A
O2536     Zr2548   2.438       .  S
O2536      C2537   1.292       .  A
C2537      C2822   1.495       .  S
O2538     Zr2541   2.443       .  S
O2538      C2540   1.289       .  A
O2539      C2540   1.287       .  A
C2540      C2846   1.484       .  S
Zr2541     O2542   2.437       .  S
Zr2541     O2543   2.432       .  S
Zr2541     O2549   2.358       .  S
Zr2541     O2550   2.383       .  S
Zr2541     O2553   2.363       .  S
Zr2541     O2551   2.393       .  S
O2542      H2562   0.990       .  S
O2542      H2567   0.990       .  S
O2543      H2563   0.990       .  S
Zr2544     O3745   2.436       .  S
Zr2544     O2546   2.433   1_655  S
Zr2544     O3750   2.368   1_545  S
Zr2544     O3749   2.411       .  S
Zr2544     O2554   2.417   1_655  S
O2545     Zr3744   2.434       .  S
O2545      H2561   0.990       .  S
O2546      H2570   0.990   1_455  S
Zr2547     O3716   2.450       .  S
Zr2547     O3727   2.412       .  S
Zr2547     O3752   2.381       .  S
Zr2548     O3749   2.428       .  S
Zr2548     O3751   2.388   1_545  S
Zr2548     O2554   2.420   1_655  S
O2549     Zr3744   2.417       .  S
O2549     Zr3748   2.434       .  S
O2549      H2557   0.966       .  S
O2550     Zr3744   2.361       .  S
O2551     Zr3748   2.380       .  S
O2552     Zr3747   2.387       .  S
O2552      H2556   0.965       .  S
O2553      H2558   0.966       .  S
C2571      C2573   1.548       .  S
C2571      C2575   1.547       .  S
C2571      C2574   1.519       .  S
C2571      C2621   1.500       .  S
C2572      C2576   1.525       .  S
C2572      C2578   1.555       .  S
C2572      C2577   1.540       .  S
C2572      C2645   1.502       .  S
C2573      C2581   1.391       .  A
C2573      C2576   1.377       .  A
C2574      C2585   1.370       .  A
C2574      C2577   1.373       .  A
C2575      C2589   1.382       .  A
C2575      C2578   1.403       .  A
C2576      C2579   1.374       .  A
C2577      C2583   1.390       .  A
C2578      C2586   1.381       .  A
C2579      H2592   1.083       .  S
C2579      N2580   1.351       .  A
N2580      C2581   1.360       .  A
N2580      C2789   1.436       .  S
C2581      H2582   1.082       .  S
C2583      H2593   1.082       .  S
C2583      N2584   1.362       .  A
N2584      C2585   1.351       .  A
N2584      C2741   1.439       .  S
C2585      H2591   1.083       .  S
C2586      H2588   1.080       .  S
C2586      N2587   1.357       .  A
N2587      C2589   1.356       .  A
N2587      C2774   1.439       .  S
C2589      H2590   1.081       .  S
C2594      C2596   1.556       .  S
C2594      C2598   1.542       .  S
C2594      C2597   1.553       .  S
C2594      C2654   1.518       .  S
C2595      C2599   1.524       .  S
C2595      C2601   1.552       .  S
C2595      C2600   1.523       .  S
C2595      C2630   1.497       .  S
C2596      C2604   1.385       .  A
C2596      C2599   1.378       .  A
C2597      C2608   1.398       .  A
C2597      C2600   1.388       .  A
C2598      C2612   1.380       .  A
C2598      C2601   1.392       .  A
C2599      C2602   1.387       .  A
C2600      C2606   1.370       .  A
C2601      C2609   1.385       .  A
C2602      H2615   1.082       .  S
C2602      N2603   1.356       .  A
N2603      C2604   1.351       .  A
N2603      C2717   1.438       .  S
C2604      H2605   1.081       .  S
C2606      H2616   1.083       .  S
C2606      N2607   1.345       .  A
N2607      C2608   1.364       .  A
N2607      C2669   1.439       .  S
C2608      H2614   1.082       .  S
C2609      H2611   1.082       .  S
C2609      N2610   1.360       .  A
N2610      C2612   1.357       .  A
N2610      C2702   1.444       .  S
C2612      H2613   1.081       .  S
C2617      C2618   1.398       .  A
C2617      C2622   1.389       .  A
C2617      H2627   1.084       .  S
C2618      C2619   1.399       .  A
C2618      C2623   1.443       .  S
C2619      C2620   1.382       .  A
C2619      S2624   1.808       .  S
C2620      C2621   1.409       .  A
C2620      H2625   1.081       .  S
C2621      C2622   1.419       .  A
C2622      S2626   1.805       .  S
C2623      C2628   1.411       .  A
C2623      C2632   1.391       .  A
S2624      H2640   1.407       .  S
S2626      H2637   1.401       .  S
C2628      C2629   1.383       .  A
C2628      S2633   1.812       .  S
C2629      C2630   1.398       .  A
C2629      H2634   1.081       .  S
C2630      C2631   1.422       .  A
C2631      C2632   1.384       .  A
C2631      S2635   1.808       .  S
C2632      H2636   1.084       .  S
S2633      H2638   1.407       .  S
S2635      H2639   1.403       .  S
C2641      C2642   1.397       .  A
C2641      C2646   1.377       .  A
C2641      H2651   1.084       .  S
C2642      C2643   1.402       .  A
C2642      C3247   1.460       .  S
C2643      C2644   1.391       .  A
C2643      S2648   1.803       .  S
C2644      C2645   1.407       .  A
C2644      H2649   1.073       .  S
C2645      C2646   1.427       .  A
C2646      S2650   1.823       .  S
C2647      C2652   1.398       .  A
C2647      C2656   1.403       .  A
C2647      C3242   1.459       .  S
S2648      H3264   1.407       .  S
S2650      H2661   1.392       .  S
C2652      C2653   1.380       .  A
C2652      S2657   1.811       .  S
C2653      C2654   1.405       .  A
C2653      H2658   1.079       .  S
C2654      C2655   1.422       .  A
C2655      C2656   1.397       .  A
C2655      S2659   1.811       .  S
C2656      H2660   1.084       .  S
S2657      H2662   1.407       .  S
S2659      H2663   1.395       .  S
H2664      S3248   1.407   1_554  S
C2665      C2666   1.403       .  A
C2665      C2670   1.404       .  A
C2665      H2675   1.084       .  S
C2666      C2667   1.417       .  A
C2666      C2671   1.494       .  S
C2667      C2668   1.406       .  A
C2667      S2672   1.805       .  S
C2668      C2669   1.404       .  A
C2668      H2673   1.083       .  S
C2669      C2670   1.412       .  A
C2670      S2674   1.800       .  S
C2671      C2676   1.412       .  A
C2671      C2680   1.403       .  A
S2672      H2688   1.405       .  S
S2674      H2685   1.406       .  S
C2676      C2677   1.408       .  A
C2676      S2681   1.808       .  S
C2677      C2678   1.408       .  A
C2677      H2682   1.082       .  S
C2678      C2679   1.419       .  A
C2679      C2680   1.407       .  A
C2679      S2683   1.800       .  S
C2680      H2684   1.084       .  S
S2681      H2686   1.407       .  S
S2683      H2687   1.407       .  S
C2689      C2690   1.402       .  A
C2689      C2694   1.402       .  A
C2689      H2699   1.084       .  S
C2690      C2691   1.415       .  A
C2690      C2695   1.494       .  S
C2691      C2692   1.406       .  A
C2691      S2696   1.804       .  S
C2692      C2693   1.407       .  A
C2692      H3897   1.084       .  S
C2693      C2694   1.421       .  A
C2694      S2698   1.803       .  S
C2695      C2700   1.412       .  A
C2695      C2704   1.406       .  A
S2696      H2712   1.406       .  S
H2697      C3892   1.084       .  S
S2698      H2709   1.407       .  S
C2700      C2701   1.406       .  A
C2700      S2705   1.807       .  S
C2701      C2702   1.405       .  A
C2701      H2706   1.082       .  S
C2702      C2703   1.413       .  A
C2703      C2704   1.404       .  A
C2703      S2707   1.802       .  S
C2704      H2708   1.084       .  S
S2705      H2710   1.407       .  S
S2707      H2711   1.407       .  S
C2713      C2714   1.405       .  A
C2713      C2718   1.400       .  A
C2713      H2723   1.083       .  S
C2714      C2715   1.418       .  A
C2714      C2719   1.493       .  S
C2715      C2716   1.404       .  A
C2715      S2720   1.804       .  S
C2716      C2717   1.402       .  A
C2716      H2721   1.083       .  S
C2717      C2718   1.410       .  A
C2718      S2722   1.802       .  S
C2719      C2724   1.412       .  A
C2719      C2728   1.409       .  A
S2720      H2736   1.407       .  S
S2722      H2733   1.408       .  S
C2724      C2725   1.402       .  A
C2724      S2729   1.808       .  S
C2725      C2726   1.407       .  A
C2725      H2730   1.083       .  S
C2726      C2727   1.411       .  A
C2727      C2728   1.404       .  A
C2728      H2732   1.084       .  S
S2729      H3934   1.407       .  S
S2731      H2735   1.407       .  S
H2734      S3929   1.407   1_545  S
C2737      C2738   1.402       .  A
C2737      C2742   1.398       .  A
C2737      H2747   1.084       .  S
C2738      C2739   1.417       .  A
C2738      C2743   1.488       .  S
C2739      C2740   1.403       .  A
C2739      S2744   1.804       .  S
C2740      C2741   1.402       .  A
C2740      H2745   1.083       .  S
C2741      C2742   1.415       .  A
C2742      S2746   1.804       .  S
C2743      C2748   1.414       .  A
C2743      C2752   1.405       .  A
S2744      H2760   1.406       .  S
S2746      H2757   1.407       .  S
C2748      C2749   1.405       .  A
C2748      S2753   1.807       .  S
C2749      C2750   1.403       .  A
C2749      H2754   1.083       .  S
C2750      C2751   1.411       .  A
C2751      C2752   1.399       .  A
C2751      S2755   1.803       .  S
C2752      H2756   1.084       .  S
S2755      H2759   1.407       .  S
C2761      C2762   1.397       .  A
C2761      C2766   1.401       .  A
C2761      H2771   1.083       .  S
C2762      C2763   1.410       .  A
C2762      C2767   1.486       .  S
C2763      C2764   1.407       .  A
C2763      S2768   1.802       .  S
C2764      C2765   1.412       .  A
C2764      H2769   1.083       .  S
C2765      C2766   1.425       .  A
C2766      S2770   1.808       .  S
C2767      C2772   1.412       .  A
C2767      C2776   1.402       .  A
S2768      H2784   1.407       .  S
S2770      H3981   1.406       .  S
C2772      C2773   1.406       .  A
C2772      S2777   1.806       .  S
C2773      C2774   1.403       .  A
C2773      H2778   1.082       .  S
C2774      C2775   1.412       .  A
C2775      C2776   1.400       .  A
C2775      S2779   1.802       .  S
C2776      H2780   1.084       .  S
S2777      H2782   1.407       .  S
S2779      H2783   1.407       .  S
H2781      S3970   1.406       .  S
C2785      C2786   1.405       .  A
C2785      C2790   1.401       .  A
C2785      H2795   1.084       .  S
C2786      C2787   1.414       .  A
C2786      C2791   1.484       .  S
C2787      C2788   1.400       .  A
C2787      S2792   1.805       .  S
C2788      C2789   1.403       .  A
C2788      H2793   1.083       .  S
C2789      C2790   1.411       .  A
C2790      S2794   1.802       .  S
C2791      C2796   1.407       .  A
C2791      C2800   1.401       .  A
S2792      H2808   1.405       .  S
S2794      H2805   1.406       .  S
C2796      C2797   1.404       .  A
C2796      S2801   1.807       .  S
C2797      C2798   1.411       .  A
C2797      H2802   1.082       .  S
C2798      C2799   1.422       .  A
C2799      C2800   1.400       .  A
C2799      S2803   1.801       .  S
C2800      H2804   1.084       .  S
S2801      H2806   1.407       .  S
S2803      H2807   1.406       .  S
C2809      C2810   1.407       .  A
C2809      C2814   1.408       .  A
C2809      H2819   1.084       .  S
C2810      C2811   1.415       .  A
C2810      C2815   1.496       .  S
C2811      C2812   1.402       .  A
C2811      S2816   1.804       .  S
C2812      C2813   1.406       .  A
C2812      H2817   1.083       .  S
C2813      C2814   1.416       .  A
C2814      S2818   1.802       .  S
C2815      C2820   1.413       .  A
C2815      C2824   1.403       .  A
S2816      H2832   1.405       .  S
S2818      H2829   1.407       .  S
C2820      C2821   1.411       .  A
C2820      S2825   1.806       .  S
C2821      C2822   1.407       .  A
C2821      H2826   1.083       .  S
C2822      C2823   1.418       .  A
C2823      C2824   1.404       .  A
C2823      S2827   1.802       .  S
C2824      H2828   1.084       .  S
S2825      H2830   1.407       .  S
S2827      H2831   1.407       .  S
C2833      C2834   1.401       .  A
C2833      C2838   1.398       .  A
C2833      H2843   1.084       .  S
C2834      C2835   1.412       .  A
C2834      C2839   1.478       .  S
C2835      C2836   1.402       .  A
C2835      S2840   1.804       .  S
C2836      C2837   1.402       .  A
C2836      H2841   1.083       .  S
C2837      C2838   1.411       .  A
C2838      S2842   1.802       .  S
C2839      C2844   1.405       .  A
C2839      C2848   1.398       .  A
S2840      H2856   1.406       .  S
S2842      H2853   1.407       .  S
C2844      C2845   1.406       .  A
C2844      S2849   1.798       .  S
C2845      C2846   1.409       .  A
C2845      H2850   1.084       .  S
C2846      C2847   1.418       .  A
C2847      C2848   1.395       .  A
C2847      S2851   1.802       .  S
C2848      H2852   1.084       .  S
S2849      H2854   1.405       .  S
S2851      H2855   1.407       .  S
C2857      C2858   1.402       .  A
C2857      C2862   1.402       .  A
C2857      H2867   1.084       .  S
C2858      C2859   1.417       .  A
C2858      C2863   1.497       .  S
C2859      C2860   1.409       .  A
C2859      S2864   1.802       .  S
C2860      C2861   1.405       .  A
C2860      H2865   1.083       .  S
C2861      C2862   1.420       .  A
C2862      S2866   1.804       .  S
C2863      C2868   1.416       .  A
C2863      C2872   1.404       .  A
S2864      H2880   1.407       .  S
S2866      H2877   1.407       .  S
C2868      C2869   1.412       .  A
C2868      S2873   1.805       .  S
C2869      C2870   1.403       .  A
C2869      H2874   1.082       .  S
C2870      C2871   1.412       .  A
C2871      C2872   1.401       .  A
C2871      S2875   1.802       .  S
C2872      H2876   1.084       .  S
S2873      H2878   1.407       .  S
S2875      H2879   1.406       .  S
C2881      C2882   1.400       .  A
C2881      C2886   1.398       .  A
C2881      H2891   1.084       .  S
C2882      C2883   1.416       .  A
C2882      C2887   1.485       .  S
C2883      C2884   1.406       .  A
C2883      S2888   1.804       .  S
C2884      C2885   1.403       .  A
C2884      H2889   1.083       .  S
C2885      C2886   1.414       .  A
C2886      S3490   1.803       .  S
C2887      C3492   1.412       .  A
C2887      C2896   1.400       .  A
S2888      H2904   1.406       .  S
S2890      C3486   1.803   1_554  S
S2890      H2901   1.406   1_554  S
C2892      C3487   1.412       .  A
C2892      C3493   1.410       .  A
C2892      S2897   1.805       .  S
C2893      C3492   1.408       .  A
C2893      C2894   1.404       .  A
C2893      H3498   1.083       .  S
C2894      C2895   1.413       .  A
C2895      C2896   1.398       .  A
C2895      S2899   1.801       .  S
C2896      H2900   1.084       .  S
S2897      H2902   1.407   1_556  S
H2898      C3493   1.083       .  S
S2899      H2903   1.406   1_545  S
C2905      C3506   1.403       .  A
C2905      C2910   1.404       .  A
C2905      H2915   1.084       .  S
C2906      C3505   1.403       .  A
C2906      C2907   1.416       .  A
C2906      C2911   1.492       .  S
C2907      C2908   1.403       .  A
C2907      S2912   1.805       .  S
C2908      C2909   1.406       .  A
C2908      H2913   1.083       .  S
C2909      C3510   1.415       .  A
C2909      N3014   1.448       .  S
C2910      C3509   1.415       .  A
C2910      S2914   1.797       .  S
C2911      C2916   1.413       .  A
C2911      C2920   1.403       .  A
S2912      H2928   1.406       .  S
S2914      H2925   1.407       .  S
C2916      C2917   1.409       .  A
C2916      S2921   1.807       .  S
C2917      C2918   1.406       .  A
C2917      H2922   1.083       .  S
C2918      C2919   1.413       .  A
C2919      C2920   1.400       .  A
C2919      S2923   1.801       .  S
C2920      H2924   1.084       .  S
S2921      H2926   1.406       .  S
S2923      H2927   1.405       .  S
C2929      C2930   1.404       .  A
C2929      C2934   1.400       .  A
C2929      H2939   1.084       .  S
C2930      C3531   1.415       .  A
C2930      C2935   1.491       .  S
C2931      C3530   1.414       .  A
C2931      C2932   1.404       .  A
C2931      S2936   1.805       .  S
C2932      C3533   1.409   1_554  A
C2932      H2937   1.084       .  S
C2933      C3532   1.409       .  A
C2933      C2934   1.415       .  A
C2934      S2938   1.804       .  S
C2935      C2940   1.413       .  A
C2935      C3544   1.403       .  A
S2936      H2952   1.405       .  S
S2938      H2949   1.406       .  S
C2940      C2941   1.409       .  A
C2940      S2945   1.806       .  S
C2941      C2942   1.404       .  A
C2941      H2946   1.082       .  S
C2942      C3543   1.412       .  A
C2942      N3017   1.438       .  S
C2943      C3542   1.412       .  A
C2943      C2944   1.402       .  A
C2943      S2947   1.799       .  S
C2944      C3535   1.404       .  A
C2944      H2948   1.084       .  S
S2945      H2950   1.407       .  S
S2947      H2951   1.403       .  S
C2953      C2954   1.391       .  A
C2953      C2958   1.383       .  A
C2953      H2963   1.084       .  S
C2954      C2955   1.403       .  A
C2954      C2959   1.455       .  S
C2955      C2956   1.389       .  A
C2955      S2960   1.802       .  S
C2956      C2957   1.404       .  A
C2956      H2961   1.076       .  S
C2957      C2958   1.433       .  A
C2958      S2962   1.820       .  S
C2959      C2964   1.402       .  A
C2959      C2968   1.402       .  A
S2960      H2976   1.408       .  S
S2962      H2973   1.392       .  S
C2964      C2965   1.390       .  A
C2964      S2969   1.807       .  S
C2965      C2966   1.404       .  A
C2965      H2970   1.079       .  S
C2966      C2967   1.414       .  A
C2967      C2968   1.385       .  A
C2967      S2971   1.809       .  S
C2968      H2972   1.085       .  S
S2969      H2974   1.407       .  S
S2971      H2975   1.400       .  S
C2977      C2978   1.387       .  A
C2977      C2982   1.387       .  A
C2977      H2987   1.084       .  S
C2978      C2979   1.406       .  A
C2978      C2983   1.444       .  S
C2979      C2980   1.381       .  A
C2979      S2984   1.807       .  S
C2980      C2981   1.403       .  A
C2980      H2985   1.079       .  S
C2981      C2982   1.430       .  A
C2982      S2986   1.810       .  S
C2983      C2988   1.397       .  A
C2983      C2992   1.392       .  A
S2984      H3000   1.405       .  S
S2986      H2997   1.394   1_554  S
C2988      C2989   1.390       .  A
C2988      S2993   1.804       .  S
C2989      C2990   1.406       .  A
C2989      H2994   1.077       .  S
C2990      C2991   1.426       .  A
C2991      C2992   1.383       .  A
C2991      S2995   1.817       .  S
C2992      H2996   1.085       .  S
S2993      H2998   1.407       .  S
S2995      H2999   1.392       .  S
C3001      C3003   1.557       .  S
C3001      C3005   1.525       .  S
C3001      C3004   1.546       .  S
C3001      C3557   1.504       .  S
C3002      C3006   1.528       .  S
C3002      C3008   1.556       .  S
C3002      C3007   1.536       .  S
C3002      C3581   1.504       .  S
C3003      C3011   1.398       .  A
C3004      C3015   1.386       .  A
C3005      C3019   1.369       .  A
C3006      C3009   1.368       .  A
C3007      C3013   1.383       .  A
C3008      C3016   1.398       .  A
C3009      H3022   1.083       .  S
N3010      C3011   1.365       .  A
N3010      C3485   1.440       .  S
C3011      H3012   1.080       .  S
C3013      H3023   1.082       .  S
C3013      N3014   1.360       .  A
C3015      H3021   1.082       .  S
C3016      H3018   1.082       .  S
C3016      N3017   1.364       .  A
C3019      H3020   1.083       .  S
C3024      C3026   1.553       .  S
C3024      C3028   1.547       .  S
C3024      C3027   1.523       .  S
C3024      C3590   1.503       .  S
C3025      C3029   1.551       .  S
C3025      C3031   1.549       .  S
C3025      C3030   1.537       .  S
C3025      C3566   1.506       .  S
C3026      C3034   1.389       .  A
C3026      C3029   1.394       .  A
C3027      C3038   1.373       .  A
C3027      C3030   1.376       .  A
C3028      C3042   1.392       .  A
C3028      C3031   1.385       .  A
C3029      C3032   1.388       .  A
C3030      C3036   1.391       .  A
C3031      C3039   1.384       .  A
C3032      H3045   1.082       .  S
C3032      N3033   1.358       .  A
N3033      C3034   1.356       .  A
N3033      C3413   1.448       .  S
C3034      H3035   1.080       .  S
C3036      H3046   1.082       .  S
C3036      N3037   1.363       .  A
N3037      C3038   1.353       .  A
N3037      C3437   1.438       .  S
C3038      H3044   1.083       .  S
C3039      H3041   1.081       .  S
C3039      N3040   1.352       .  A
N3040      C3042   1.360       .  A
N3040      C3470   1.444       .  S
C3042      H3043   1.082       .  S
O3047     Zr3059   2.470       .  S
O3047      C3049   1.296       .  A
O3048     Zr3085   2.452       .  S
O3048      C3049   1.294       .  A
C3049      C3398   1.500       .  S
O3050     Zr3062   2.428       .  S
O3050      C3052   1.286       .  A
O3051     Zr3086   2.445   1_455  S
C3052      C3350   1.463       .  S
O3053     Zr3062   2.462       .  S
O3053      C3055   1.292       .  A
O3054     Zr4285   2.414   1_545  S
O3054      C3055   1.285       .  A
C3055      C3533   1.490       .  S
O3056      C3058   1.316   1_455  A
O3057     Zr3086   2.562       .  S
O3057      C3058   1.312       .  A
C3058      C4334   1.604       .  S
Zr3059     O4260   2.436       .  S
Zr3059     O4265   2.415       .  S
Zr3059     O4266   2.362       .  S
O3060     Zr4259   2.434   1_545  S
O3060      H3103   0.990       .  S
O3061      H3102   0.990       .  S
O3061      H3106   0.990       .  S
Zr3062     O3063   2.437       .  S
Zr3062     O3064   2.435       .  S
Zr3062     O3066   2.399       .  S
Zr3062     O3065   2.351       .  S
Zr3062     O3090   2.384       .  S
O3063      H3104   0.989       .  S
O3063      H3107   0.990       .  S
O3064      H3097   0.990       .  S
O3065     Zr4259   2.416   1_545  S
O3065     Zr4285   2.423   1_545  S
O3066     Zr4259   2.359   1_545  S
O3066      H3093   0.965       .  S
O3067     Zr3079   2.438       .  S
O3067      C3069   1.285       .  A
O3068     Zr3086   2.461   1_565  S
O3068      C4269   1.294       .  A
C3069      O4268   1.291       .  A
C3069      C3365   1.504       .  S
O3070      C4272   1.313       .  A
C3072      O4270   1.311       .  A
C3072      C4320   1.606       .  S
O3073     Zr3082   2.473       .  S
O3073      C3075   1.295       .  A
O3074     Zr3086   2.425       .  S
O3074      C3075   1.289       .  A
C3075      C3494   1.479       .  S
O3076     Zr3079   2.443       .  S
O3076      C3078   1.287       .  A
O3077      C3078   1.294       .  A
C3078      C3518   1.487       .  S
Zr3079     O3080   2.435       .  S
Zr3079     O3081   2.437       .  S
Zr3079     O3087   2.362       .  S
Zr3079     O3088   2.394       .  S
Zr3079     O3091   2.350       .  S
Zr3079     O3089   2.394       .  S
O3080      H3100   0.990       .  S
O3080      H3105   0.990       .  S
O3081      H3101   0.990       .  S
Zr3082     O3683   2.434   1_546  S
Zr3082     O4288   2.382   1_545  S
Zr3082     O4287   2.407   1_545  S
Zr3082     O3092   2.397       .  S
O3083     Zr3682   2.435       .  S
O3083      H3099   0.990       .  S
O3084      H3108   0.990       .  S
Zr3085     O4254   2.442       .  S
Zr3085     O4265   2.425       .  S
Zr3085     O4290   2.381       .  S
Zr3086     O4287   2.421   1_545  S
Zr3086     O4289   2.380   1_545  S
Zr3086     O3092   2.416       .  S
O3087     Zr4282   2.410       .  S
O3087     Zr4286   2.421       .  S
O3087      H3095   0.965       .  S
O3088     Zr4282   2.386       .  S
O3089     Zr4286   2.373       .  S
O3090     Zr4285   2.382   1_545  S
O3091      H3096   0.963       .  S
O3109     Zr3121   2.486       .  S
O3109      C3111   1.299       .  A
O3110     Zr3147   2.400       .  S
O3110      C3111   1.285       .  A
C3111      C3326   1.482       .  S
O3112     Zr3124   2.453       .  S
O3112      C3114   1.289       .  A
O3113     Zr3148   2.455   1_455  S
C3114      C3278   1.490       .  S
O3115     Zr3124   2.444       .  S
O3115      C3117   1.288       .  A
O3116     Zr4347   2.457       .  S
O3116      C3117   1.293       .  A
C3117      C3461   1.496       .  S
O3118     Zr4321   2.558       .  S
O3119     Zr3148   2.572       .  S
O3119      C3120   1.315       .  A
C3120      C4272   1.609       .  S
Zr3121     O4318   2.584       .  S
Zr3121     O4322   2.435       .  S
Zr3121     O4327   2.401       .  S
Zr3121     O4328   2.374       .  S
O3122     Zr4321   2.435   1_545  S
O3122      H3165   0.990       .  S
O3123      H3164   0.990       .  S
O3123      H3168   0.990   1_655  S
Zr3124     O3125   2.437       .  S
Zr3124     O3126   2.435       .  S
Zr3124     O3128   2.393       .  S
Zr3124     O3127   2.357       .  S
Zr3124     O3152   2.400       .  S
O3125      H3166   0.990       .  S
O3125      H3169   0.990       .  S
O3126      H3159   0.990       .  S
O3127     Zr4321   2.399   1_545  S
O3127     Zr4347   2.409       .  S
O3128     Zr4321   2.378   1_545  S
O3128      H3155   0.966       .  S
O3129     Zr3141   2.440       .  S
O3129      C3131   1.288       .  A
O3130     Zr3148   2.456   1_565  S
O3130      C4331   1.293       .  A
C3131      O4330   1.292       .  A
C3131      C3293   1.492       .  S
O3132     Zr3144   2.597       .  S
O3132      C4334   1.317       .  A
O3133     Zr3147   2.553       .  S
C3134      O4332   1.317       .  A
C3134      C4258   1.604       .  S
O3135     Zr3144   2.476       .  S
O3135      C3137   1.297       .  A
O3136     Zr3148   2.434       .  S
O3136      C3137   1.291       .  A
C3137      C3422   1.489       .  S
O3138     Zr3141   2.447       .  S
O3138      C3140   1.289       .  A
O3139      C3140   1.291       .  A
C3140      C3446   1.494       .  S
Zr3141     O3142   2.435       .  S
Zr3141     O3143   2.432       .  S
Zr3141     O3149   2.361       .  S
Zr3141     O3150   2.386       .  S
Zr3141     O3153   2.363       .  S
Zr3141     O3151   2.393       .  S
O3142      H3162   0.990       .  S
O3142      H3167   0.990       .  S
O3143      H3163   0.990       .  S
Zr3144     O4345   2.434       .  S
Zr3144     O3146   2.436   1_655  S
Zr3144     O4350   2.366   1_545  S
Zr3144     O4349   2.411       .  S
Zr3144     O3154   2.422   1_655  S
O3145     Zr4344   2.435       .  S
O3145      H3161   0.990       .  S
O3146      H3170   0.990       .  S
Zr3147     O4316   2.461       .  S
Zr3147     O4327   2.413       .  S
Zr3147     O4352   2.387       .  S
Zr3148     O4349   2.430       .  S
Zr3148     O4351   2.388   1_545  S
Zr3148     O3154   2.423   1_655  S
O3149     Zr4344   2.413       .  S
O3149     Zr4348   2.428       .  S
O3149      H3157   0.966       .  S
O3150     Zr4344   2.363       .  S
O3151     Zr4348   2.381       .  S
O3152     Zr4347   2.380       .  S
O3152      H3156   0.965       .  S
O3153      H3158   0.965       .  S
C3171      C3173   1.551       .  S
C3171      C3175   1.562       .  S
C3171      C3174   1.521       .  S
C3171      C3221   1.508       .  S
C3172      C3176   1.527       .  S
C3172      C3178   1.550       .  S
C3172      C3177   1.534       .  S
C3172      C3245   1.502       .  S
C3173      C3181   1.393       .  A
C3173      C3176   1.377       .  A
C3174      C3185   1.372       .  A
C3174      C3177   1.372       .  A
C3175      C3189   1.392       .  A
C3175      C3178   1.406       .  A
C3176      C3179   1.378       .  A
C3177      C3183   1.387       .  A
C3178      C3186   1.376       .  A
C3179      H3192   1.082       .  S
C3179      N3180   1.353       .  A
N3180      C3181   1.360       .  A
N3180      C3389   1.440       .  S
C3181      H3182   1.082       .  S
C3183      H3193   1.082       .  S
C3183      N3184   1.357       .  A
N3184      C3185   1.351       .  A
N3184      C3341   1.431       .  S
C3185      H3191   1.083       .  S
C3186      H3188   1.079       .  S
C3186      N3187   1.355       .  A
N3187      C3189   1.364       .  A
N3187      C3374   1.449       .  S
C3189      H3190   1.081       .  S
C3194      C3196   1.553       .  S
C3194      C3198   1.541       .  S
C3194      C3197   1.550       .  S
C3194      C3254   1.518       .  S
C3195      C3199   1.521       .  S
C3195      C3201   1.558       .  S
C3195      C3200   1.527       .  S
C3195      C3230   1.502       .  S
C3196      C3204   1.382       .  A
C3196      C3199   1.376       .  A
C3197      C3208   1.398       .  A
C3197      C3200   1.388       .  A
C3198      C3212   1.379       .  A
C3198      C3201   1.394       .  A
C3199      C3202   1.384       .  A
C3200      C3206   1.372       .  A
C3201      C3209   1.389       .  A
C3202      H3215   1.082       .  S
C3202      N3203   1.357       .  A
N3203      C3204   1.351       .  A
N3203      C3317   1.437       .  S
C3204      H3205   1.080       .  S
C3206      H3216   1.082       .  S
C3206      N3207   1.345       .  A
N3207      C3208   1.363       .  A
N3207      C3269   1.438       .  S
C3208      H3214   1.082       .  S
C3209      H3211   1.081       .  S
C3209      N3210   1.363       .  A
N3210      C3212   1.358       .  A
N3210      C3302   1.448       .  S
C3212      H3213   1.081       .  S
C3217      C3218   1.403       .  A
C3217      C3222   1.394       .  A
C3217      H3227   1.084       .  S
C3218      C3219   1.400       .  A
C3218      C3223   1.452       .  S
C3219      C3220   1.383       .  A
C3219      S3224   1.808       .  S
C3220      C3221   1.411       .  A
C3220      H3225   1.082       .  S
C3221      C3222   1.414       .  A
C3222      S3226   1.800       .  S
C3223      C3228   1.414       .  A
C3223      C3232   1.394       .  A
S3224      H3240   1.407       .  S
S3226      H3237   1.404       .  S
C3228      C3229   1.386       .  A
C3228      S3233   1.811       .  S
C3229      C3230   1.395       .  A
C3229      H3234   1.081       .  S
C3230      C3231   1.421       .  A
C3231      C3232   1.387       .  A
C3231      S3235   1.809       .  S
C3232      H3236   1.084       .  S
S3233      H3238   1.406       .  S
S3235      H3239   1.403       .  S
C3241      C3242   1.396   1_556  A
C3241      C3246   1.375       .  A
C3241      H3251   1.084   1_556  S
C3242      C3243   1.402   1_554  A
C3243      C3244   1.393       .  A
C3243      S3248   1.802       .  S
C3244      C3245   1.407       .  A
C3244      H3249   1.074       .  S
C3245      C3246   1.427       .  A
C3246      S3250   1.823       .  S
C3247      C3252   1.399       .  A
C3247      C3256   1.405       .  A
S3250      H3261   1.391       .  S
C3252      C3253   1.381       .  A
C3252      S3257   1.811       .  S
C3253      C3254   1.405       .  A
C3253      H3258   1.080       .  S
C3254      C3255   1.418       .  A
C3255      C3256   1.396       .  A
C3255      S3259   1.809       .  S
C3256      H3260   1.084       .  S
S3257      H3262   1.408       .  S
S3259      H3263   1.396       .  S
C3265      C3266   1.403       .  A
C3265      C3270   1.403       .  A
C3265      H3275   1.084       .  S
C3266      C3267   1.415       .  A
C3266      C3271   1.490       .  S
C3267      C3268   1.405       .  A
C3267      S3272   1.804       .  S
C3268      C3269   1.403       .  A
C3268      H3273   1.083       .  S
C3269      C3270   1.413       .  A
C3270      S3274   1.801       .  S
C3271      C3276   1.411       .  A
C3271      C3280   1.403       .  A
S3272      H3288   1.406       .  S
S3274      H3285   1.405       .  S
C3276      C3277   1.405       .  A
C3276      S3281   1.808       .  S
C3277      C3278   1.406       .  A
C3277      H3282   1.083       .  S
C3278      C3279   1.417       .  A
C3279      C3280   1.405       .  A
C3279      S3283   1.801       .  S
C3280      H3284   1.084       .  S
S3281      H3286   1.407       .  S
S3283      H3287   1.407       .  S
C3289      C3290   1.403       .  A
C3289      C3294   1.402       .  A
C3289      H3299   1.084       .  S
C3290      C3291   1.415       .  A
C3290      C3295   1.493       .  S
C3291      C3292   1.405       .  A
C3291      S3296   1.803       .  S
C3292      C3293   1.407       .  A
C3292      H4497   1.084       .  S
C3293      C3294   1.419       .  A
C3294      S3298   1.804       .  S
C3295      C3300   1.410       .  A
C3295      C3304   1.406       .  A
S3296      H3312   1.406       .  S
H3297      C4492   1.084       .  S
S3298      H3309   1.408       .  S
C3300      C3301   1.405       .  A
C3300      S3305   1.807       .  S
C3301      C3302   1.407       .  A
C3301      H3306   1.082       .  S
C3302      C3303   1.416       .  A
C3303      C3304   1.406       .  A
C3303      S3307   1.801       .  S
C3304      H3308   1.084       .  S
S3305      H3310   1.407       .  S
S3307      H3311   1.407       .  S
C3313      C3314   1.403       .  A
C3313      C3318   1.398       .  A
C3313      H3323   1.084       .  S
C3314      C3315   1.414       .  A
C3314      C3319   1.484       .  S
C3315      C3316   1.401       .  A
C3315      S3320   1.804       .  S
C3316      C3317   1.403       .  A
C3316      H3321   1.083       .  S
C3317      C3318   1.413       .  A
C3318      S3322   1.803       .  S
C3319      C3324   1.408       .  A
C3319      C3328   1.406       .  A
S3320      H3336   1.406       .  S
S3322      H3333   1.407       .  S
C3324      C3325   1.400       .  A
C3324      S3329   1.808       .  S
C3325      C3326   1.408       .  A
C3325      H3330   1.083       .  S
C3326      C3327   1.413       .  A
C3327      C3328   1.404       .  A
C3328      H3332   1.084       .  S
S3329      H4534   1.407       .  S
S3331      H3335   1.407       .  S
H3334      S4529   1.407       .  S
C3337      C3338   1.403       .  A
C3337      C3342   1.396       .  A
C3337      H3347   1.084       .  S
C3338      C3339   1.419       .  A
C3338      C3343   1.485       .  S
C3339      C3340   1.399       .  A
C3339      S3344   1.805       .  S
C3340      C3341   1.398       .  A
C3340      H3345   1.083       .  S
C3341      C3342   1.410       .  A
C3342      S3346   1.803       .  S
C3343      C3348   1.414       .  A
C3343      C3352   1.405       .  A
S3344      H3360   1.406       .  S
S3346      H3357   1.407       .  S
C3348      C3349   1.403       .  A
C3348      S3353   1.808       .  S
C3349      C3350   1.402       .  A
C3349      H3354   1.084       .  S
C3350      C3351   1.408       .  A
C3351      C3352   1.395       .  A
C3351      S3355   1.804       .  S
C3352      H3356   1.084       .  S
S3355      H3359   1.406       .  S
C3361      C3362   1.400       .  A
C3361      C3366   1.404       .  A
C3361      H3371   1.083       .  S
C3362      C3363   1.412       .  A
C3362      C3367   1.492       .  S
C3363      C3364   1.403       .  A
C3363      S3368   1.803       .  S
C3364      C3365   1.411       .  A
C3364      H3369   1.083       .  S
C3365      C3366   1.427       .  A
C3366      S3370   1.812       .  S
C3367      C3372   1.413       .  A
C3367      C3376   1.401       .  A
S3368      H3384   1.406       .  S
S3370      H4581   1.407       .  S
C3372      C3373   1.410       .  A
C3372      S3377   1.806       .  S
C3373      C3374   1.406       .  A
C3373      H3378   1.082       .  S
C3374      C3375   1.419       .  A
C3375      C3376   1.400       .  A
C3375      S3379   1.803       .  S
C3376      H3380   1.084       .  S
S3377      H3382   1.406       .  S
S3379      H3383   1.407       .  S
H3381      S4570   1.406       .  S
C3385      C3386   1.406       .  A
C3385      C3390   1.406       .  A
C3385      H3395   1.084       .  S
C3386      C3387   1.414       .  A
C3386      C3391   1.493       .  S
C3387      C3388   1.402       .  A
C3387      S3392   1.803       .  S
C3388      C3389   1.401       .  A
C3388      H3393   1.083       .  S
C3389      C3390   1.414       .  A
C3390      S3394   1.804       .  S
C3391      C3396   1.409       .  A
C3391      C3400   1.403       .  A
S3392      H3408   1.406       .  S
S3394      H3405   1.402       .  S
C3396      C3397   1.409       .  A
C3396      S3401   1.806       .  S
C3397      C3398   1.411       .  A
C3397      H3402   1.083       .  S
C3398      C3399   1.420       .  A
C3399      C3400   1.404       .  A
C3399      S3403   1.801       .  S
C3400      H3404   1.084       .  S
S3401      H3406   1.407       .  S
S3403      H3407   1.406       .  S
C3409      C3410   1.404       .  A
C3409      C3414   1.406       .  A
C3409      H3419   1.084       .  S
C3410      C3411   1.414       .  A
C3410      C3415   1.491       .  S
C3411      C3412   1.403       .  A
C3411      S3416   1.805       .  S
C3412      C3413   1.405       .  A
C3412      H3417   1.083       .  S
C3413      C3414   1.417       .  A
C3414      S3418   1.802       .  S
C3415      C3420   1.411       .  A
C3415      C3424   1.403       .  A
S3416      H3432   1.405       .  S
S3418      H3429   1.406       .  S
C3420      C3421   1.408       .  A
C3420      S3425   1.806       .  S
C3421      C3422   1.406       .  A
C3421      H3426   1.083       .  S
C3422      C3423   1.417       .  A
C3423      C3424   1.403       .  A
C3423      S3427   1.803       .  S
C3424      H3428   1.084       .  S
S3425      H3430   1.407       .  S
S3427      H3431   1.407       .  S
C3433      C3434   1.405       .  A
C3433      C3438   1.403       .  A
C3433      H3443   1.084       .  S
C3434      C3435   1.415       .  A
C3434      C3439   1.492       .  S
C3435      C3436   1.404       .  A
C3435      S3440   1.802       .  S
C3436      C3437   1.402       .  A
C3436      H3441   1.083       .  S
C3437      C3438   1.410       .  A
C3438      S3442   1.801       .  S
C3439      C3444   1.410       .  A
C3439      C3448   1.402       .  A
S3440      H3456   1.407       .  S
S3442      H3453   1.407       .  S
C3444      C3445   1.410       .  A
C3444      S3449   1.802       .  S
C3445      C3446   1.409       .  A
C3445      H3450   1.083       .  S
C3446      C3447   1.419       .  A
C3447      C3448   1.399       .  A
C3447      S3451   1.803       .  S
C3448      H3452   1.084       .  S
S3449      H3454   1.406       .  S
S3451      H3455   1.408       .  S
C3457      C3458   1.402       .  A
C3457      C3462   1.403       .  A
C3457      H3467   1.084       .  S
C3458      C3459   1.417       .  A
C3458      C3463   1.497       .  S
C3459      C3460   1.407       .  A
C3459      S3464   1.803       .  S
C3460      C3461   1.405       .  A
C3460      H3465   1.083       .  S
C3461      C3462   1.421       .  A
C3462      S3466   1.804       .  S
C3463      C3468   1.416       .  A
C3463      C3472   1.403       .  A
S3464      H3480   1.406       .  S
S3466      H3477   1.408       .  S
C3468      C3469   1.413       .  A
C3468      S3473   1.806       .  S
C3469      C3470   1.404       .  A
C3469      H3474   1.082       .  S
C3470      C3471   1.415       .  A
C3471      C3472   1.401       .  A
C3471      S3475   1.803       .  S
C3472      H3476   1.084       .  S
S3473      H3478   1.407       .  S
S3475      H3479   1.406       .  S
C3481      C3482   1.400       .  A
C3481      C3486   1.398       .  A
C3481      H3491   1.084       .  S
C3482      C3483   1.415       .  A
C3482      C3487   1.483       .  S
C3483      C3484   1.407       .  A
C3483      S3488   1.805       .  S
C3484      C3485   1.404       .  A
C3484      H3489   1.083       .  S
C3485      C3486   1.415       .  A
C3487      C3496   1.398       .  A
S3488      H3504   1.405       .  S
S3490      H3501   1.407       .  S
C3492      S3497   1.805       .  S
C3493      C3494   1.405       .  A
C3494      C3495   1.413       .  A
C3495      C3496   1.396       .  A
C3495      S3499   1.799       .  S
C3496      H3500   1.084       .  S
S3497      H3502   1.407       .  S
S3499      H3503   1.406   1_545  S
C3505      C3510   1.401       .  A
C3505      H3515   1.084       .  S
C3506      C3507   1.417       .  A
C3506      C3511   1.495       .  S
C3507      C3508   1.405       .  A
C3507      S3512   1.803       .  S
C3508      C3509   1.404       .  A
C3508      H3513   1.083       .  S
C3510      S3514   1.797       .  S
C3511      C3516   1.413       .  A
C3511      C3520   1.404       .  A
S3512      H3528   1.405       .  S
S3514      H3525   1.407       .  S
C3516      C3517   1.410       .  A
C3516      S3521   1.806   1_556  S
C3517      C3518   1.405       .  A
C3517      H3522   1.083   1_556  S
C3518      C3519   1.415       .  A
C3519      C3520   1.405       .  A
C3519      S3523   1.800       .  S
C3520      H3524   1.084       .  S
S3521      H3526   1.406       .  S
S3523      H3527   1.404       .  S
C3529      C3530   1.403   1_556  A
C3529      C3534   1.400       .  A
C3529      H3539   1.084       .  S
C3530      C3535   1.488       .  S
C3531      C3532   1.407       .  A
C3531      S3536   1.805       .  S
C3532      H3537   1.084       .  S
C3533      C3534   1.416       .  A
C3534      S3538   1.802       .  S
C3535      C3540   1.412       .  A
S3536      H3552   1.405       .  S
S3538      H3549   1.408       .  S
C3540      C3541   1.405       .  A
C3540      S3545   1.806       .  S
C3541      C3542   1.404       .  A
C3541      H3546   1.083       .  S
C3543      C3544   1.401       .  A
C3543      S3547   1.801       .  S
C3544      H3548   1.084       .  S
S3545      H3550   1.407       .  S
S3547      H3551   1.403       .  S
C3553      C3554   1.392       .  A
C3553      C3558   1.383       .  A
C3553      H3563   1.084       .  S
C3554      C3555   1.403       .  A
C3554      C3559   1.457       .  S
C3555      C3556   1.389       .  A
C3555      S3560   1.801       .  S
C3556      C3557   1.404       .  A
C3556      H3561   1.076       .  S
C3557      C3558   1.433       .  A
C3558      S3562   1.821       .  S
C3559      C3564   1.403       .  A
C3559      C3568   1.405       .  A
S3560      H3576   1.408       .  S
S3562      H3573   1.392       .  S
C3564      C3565   1.389       .  A
C3564      S3569   1.808       .  S
C3565      C3566   1.405       .  A
C3565      H3570   1.080       .  S
C3566      C3567   1.411       .  A
C3567      C3568   1.385       .  A
C3567      S3571   1.807       .  S
C3568      H3572   1.085       .  S
S3569      H3574   1.407       .  S
S3571      H3575   1.401       .  S
C3577      C3578   1.387       .  A
C3577      C3582   1.387       .  A
C3577      H3587   1.084       .  S
C3578      C3579   1.405       .  A
C3578      C3583   1.444       .  S
C3579      C3580   1.382       .  A
C3579      S3584   1.807       .  S
C3580      C3581   1.402       .  A
C3580      H3585   1.079       .  S
C3581      C3582   1.432       .  A
C3582      S3586   1.812       .  S
C3583      C3588   1.396       .  A
C3583      C3592   1.394       .  A
S3584      H3600   1.406       .  S
S3586      H3597   1.394       .  S
C3588      C3589   1.388       .  A
C3588      S3593   1.805       .  S
C3589      C3590   1.407       .  A
C3589      H3594   1.077       .  S
C3590      C3591   1.424       .  A
C3591      C3592   1.384       .  A
C3591      S3595   1.816       .  S
C3592      H3596   1.085       .  S
S3593      H3598   1.407       .  S
S3595      H3599   1.393       .  S
C3601      C3603   1.559       .  S
C3601      C3605   1.529       .  S
C3601      C3604   1.547       .  S
C3601      C4157   1.508       .  S
C3602      C3606   1.531       .  S
C3602      C3608   1.562       .  S
C3602      C3607   1.535       .  S
C3602      C4181   1.501       .  S
C3603      C3611   1.398       .  A
C3603      C4206   1.388       .  A
C3604      C3615   1.390       .  A
C3604      C4207   1.379       .  A
C3605      C3619   1.369       .  A
C3605      C4208   1.388       .  A
C3606      C4203   1.388   1_554  A
C3606      C3609   1.373       .  A
C3607      C4204   1.379   1_554  A
C3607      C3613   1.382       .  A
C3608      C4205   1.386   1_554  A
C3608      C3616   1.404       .  A
C3609      H3622   1.083       .  S
C3609      N4210   1.351   1_554  A
N3610      C4209   1.351       .  A
N3610      C3611   1.362       .  A
N3610      C4085   1.443       .  S
C3611      H3612   1.079       .  S
C3613      H3623   1.082       .  S
C3613      N3614   1.357   1_554  A
N3614      C4215   1.359       .  A
N3614      C4709   1.443       .  S
C3615      H3621   1.082       .  S
C3615      N4214   1.360       .  A
C3616      H3618   1.081       .  S
C3616      N3617   1.368       .  A
N3617      C4219   1.347   1_554  A
N3617      C4742   1.443       .  S
C3619      H3620   1.083       .  S
C3619      N4217   1.348       .  A
C3624      C3626   1.550       .  S
C3624      C3628   1.550       .  S
C3624      C3627   1.517       .  S
C3624      C4190   1.501       .  S
C3625      C3629   1.547       .  S
C3625      C3631   1.551       .  S
C3625      C3630   1.541       .  S
C3625      C4166   1.509       .  S
C3626      C3634   1.389       .  A
C3626      C3629   1.389       .  A
C3627      C3638   1.369       .  A
C3627      C3630   1.375       .  A
C3628      C3642   1.392       .  A
C3628      C3631   1.392       .  A
C3629      C3632   1.383       .  A
C3630      C3636   1.392       .  A
C3631      C3639   1.388       .  A
C3632      H3645   1.082       .  S
C3632      N3633   1.358       .  A
N3633      C3634   1.359       .  A
N3633      C4013   1.447       .  S
C3634      H3635   1.080       .  S
C3636      H3646   1.082       .  S
C3636      N3637   1.365       .  A
N3637      C3638   1.350       .  A
N3637      C4037   1.438       .  S
C3638      H3644   1.083       .  S
C3639      H3641   1.080       .  S
C3639      N3640   1.353       .  A
N3640      C3642   1.359       .  A
N3640      C4070   1.448       .  S
C3642      H3643   1.080       .  S
O3647     Zr3659   2.456       .  S
O3647      C3649   1.294       .  A
O3648     Zr3685   2.457       .  S
O3648      C3649   1.296       .  A
C3649      C3998   1.492       .  S
O3650     Zr3662   2.438       .  S
O3650      C3652   1.287       .  A
O3651     Zr3686   2.439   1_455  S
C3652      C3950   1.469       .  S
O3653     Zr3662   2.454       .  S
O3653      C3655   1.291       .  A
O3654      C3655   1.288       .  A
C3655      C4133   1.483       .  S
O3656      C3658   1.316   1_455  A
O3657     Zr3686   2.566       .  S
O3657      C3658   1.312       .  A
O3660      H3703   0.990       .  S
O3661      H3702   0.990       .  S
O3661      H3706   0.990   1_655  S
Zr3662     O3663   2.436       .  S
Zr3662     O3664   2.435       .  S
Zr3662     O3666   2.395       .  S
Zr3662     O3665   2.353       .  S
Zr3662     O3690   2.387       .  S
O3663      H3704   0.990       .  S
O3663      H3707   0.990       .  S
O3664      H3697   0.990       .  S
O3666      H3693   0.965       .  S
O3667     Zr3679   2.440       .  S
O3667      C3669   1.287       .  A
O3668     Zr3686   2.443       .  S
C3669      C3965   1.496       .  S
O3670     Zr4282   2.563   1_554  S
O3671     Zr4285   2.572   1_544  S
O3673     Zr3682   2.478       .  S
O3673      C3675   1.296       .  A
O3674     Zr3686   2.428       .  S
O3674      C3675   1.289       .  A
C3675      C4094   1.479       .  S
O3676     Zr3679   2.435       .  S
O3676      C3678   1.286       .  A
O3677      C3678   1.292       .  A
C3678      C4118   1.479       .  S
Zr3679     O3680   2.433       .  S
Zr3679     O3681   2.434       .  S
Zr3679     O3687   2.356       .  S
Zr3679     O3688   2.389       .  S
Zr3679     O3691   2.358       .  S
Zr3679     O3689   2.394       .  S
O3680      H3700   0.990       .  S
O3680      H3705   0.990       .  S
O3681      H3701   0.990       .  S
Zr3682     O4270   2.562       .  S
Zr3682     O4284   2.431       .  S
Zr3682     O3692   2.400       .  S
O3683      H3699   0.990       .  S
O3684     Zr4282   2.435   1_554  S
O3684      H3708   0.990   1_655  S
Zr3685     O4271   2.594       .  S
Zr3686     O3692   2.420       .  S
O3687      H3695   0.965       .  S
O3690      H4294   0.967       .  S
O3691      H3696   0.964       .  S
H3694      O4290   0.967   1_554  S
O3709     Zr3721   2.493       .  S
O3709      C3711   1.300       .  A
O3710     Zr3747   2.407   1_565  S
O3710      C3711   1.286       .  A
C3711      C3926   1.483       .  S
O3712     Zr3724   2.468       .  S
O3712      C3714   1.292       .  A
O3713     Zr3748   2.450   1_455  S
C3714      C3878   1.505       .  S
O3715     Zr3724   2.455       .  S
O3715      C3717   1.290       .  A
O3716      C3717   1.291       .  A
C3717      C4061   1.493       .  S
O3719     Zr3748   2.591       .  S
O3719      C3720   1.319       .  A
O3722      H3765   0.990       .  S
O3723      H3764   0.990       .  S
O3723      H3768   0.990       .  S
Zr3724     O3725   2.438       .  S
Zr3724     O3726   2.434       .  S
Zr3724     O3728   2.393       .  S
Zr3724     O3727   2.355       .  S
Zr3724     O3752   2.402       .  S
O3725      H3766   0.990       .  S
O3725      H3769   0.990       .  S
O3726      H3759   0.990       .  S
O3728      H3755   0.966       .  S
O3729     Zr3741   2.454       .  S
O3729      C3731   1.290       .  A
O3730     Zr3748   2.457       .  S
C3731      C3893   1.495       .  S
O3732     Zr3744   2.597       .  S
O3733     Zr3747   2.564       .  S
O3735     Zr3744   2.474       .  S
O3735      C3737   1.297       .  A
O3736     Zr3748   2.441       .  S
O3736      C3737   1.293       .  A
C3737      C4022   1.490       .  S
O3738     Zr3741   2.459       .  S
O3738      C3740   1.292       .  A
O3739      C3740   1.287       .  A
C3740      C4046   1.489       .  S
Zr3741     O3742   2.436       .  S
Zr3741     O3743   2.434       .  S
Zr3741     O3749   2.360   1_565  S
Zr3741     O3750   2.388       .  S
Zr3741     O3753   2.369       .  S
Zr3741     O3751   2.399       .  S
O3742      H3762   0.990       .  S
O3742      H3767   0.990       .  S
O3743      H3763   0.990       .  S
Zr3744     O3746   2.437   1_655  S
Zr3744     O3754   2.418   1_655  S
O3745      H3761   0.990       .  S
O3746      H3770   0.990       .  S
Zr3748     O3754   2.425   1_655  S
O3749      H3757   0.965       .  S
O3752      H3756   0.965       .  S
O3753      H3758   0.966       .  S
C3771      C3773   1.550       .  S
C3771      C3775   1.548       .  S
C3771      C3774   1.516       .  S
C3771      C3821   1.505       .  S
C3772      C3776   1.528       .  S
C3772      C3778   1.555       .  S
C3772      C3777   1.539       .  S
C3772      C3845   1.503       .  S
C3773      C3781   1.391       .  A
C3773      C3776   1.379       .  A
C3774      C3785   1.369       .  A
C3774      C3777   1.370       .  A
C3775      C3789   1.382       .  A
C3775      C3778   1.407       .  A
C3776      C3779   1.377       .  A
C3777      C3783   1.390       .  A
C3778      C3786   1.380       .  A
C3779      H3792   1.083       .  S
C3779      N3780   1.353       .  A
N3780      C3781   1.359       .  A
N3780      C3989   1.438       .  S
C3781      H3782   1.082       .  S
C3783      H3793   1.082       .  S
C3783      N3784   1.361       .  A
N3784      C3785   1.349       .  A
N3784      C3941   1.435       .  S
C3785      H3791   1.083       .  S
C3786      H3788   1.079       .  S
C3786      N3787   1.355       .  A
N3787      C3789   1.356       .  A
N3787      C3974   1.436       .  S
C3789      H3790   1.081       .  S
C3794      C3796   1.552       .  S
C3794      C3798   1.543       .  S
C3794      C3797   1.548       .  S
C3794      C3854   1.516       .  S
C3795      C3799   1.531       .  S
C3795      C3801   1.560       .  S
C3795      C3800   1.531       .  S
C3795      C3830   1.501       .  S
C3796      C3804   1.382       .  A
C3796      C3799   1.379       .  A
C3797      C3808   1.397       .  A
C3797      C3800   1.383       .  A
C3798      C3812   1.382       .  A
C3798      C3801   1.391       .  A
C3799      C3802   1.392       .  A
C3800      C3806   1.375       .  A
C3801      C3809   1.391       .  A
C3802      H3815   1.082       .  S
C3802      N3803   1.360       .  A
N3803      C3804   1.350       .  A
N3803      C3917   1.445       .  S
C3804      H3805   1.079       .  S
C3806      H3816   1.082       .  S
C3806      N3807   1.349       .  A
N3807      C3808   1.365       .  A
N3807      C3869   1.442       .  S
C3808      H3814   1.082       .  S
C3809      H3811   1.081       .  S
C3809      N3810   1.363       .  A
N3810      C3812   1.360       .  A
N3810      C3902   1.453       .  S
C3812      H3813   1.082       .  S
C3817      C3818   1.400       .  A
C3817      C3822   1.395       .  A
C3817      H3827   1.084       .  S
C3818      C3819   1.399       .  A
C3818      C3823   1.454       .  S
C3819      C3820   1.382       .  A
C3819      S3824   1.807       .  S
C3820      C3821   1.410       .  A
C3820      H3825   1.081       .  S
C3821      C3822   1.422       .  A
C3822      S3826   1.803       .  S
C3823      C3828   1.417       .  A
C3823      C3832   1.394       .  A
S3824      H3840   1.407       .  S
S3826      H3837   1.401       .  S
C3828      C3829   1.383       .  A
C3828      S3833   1.811       .  S
C3829      C3830   1.393       .  A
C3829      H3834   1.080       .  S
C3830      C3831   1.420       .  A
C3831      C3832   1.387       .  A
C3831      S3835   1.809       .  S
C3832      H3836   1.084       .  S
S3833      H3838   1.407       .  S
S3835      H3839   1.400       .  S
C3841      C3842   1.396       .  A
C3841      C3846   1.374       .  A
C3841      H3851   1.084       .  S
C3842      C3843   1.403       .  A
C3842      C4447   1.460       .  S
C3843      C3844   1.393       .  A
C3843      S3848   1.804       .  S
C3844      C3845   1.408       .  A
C3844      H3849   1.073       .  S
C3845      C3846   1.427       .  A
C3846      S3850   1.823       .  S
C3847      C3852   1.397       .  A
C3847      C3856   1.404       .  A
C3847      C4442   1.458       .  S
S3848      H4464   1.407       .  S
S3850      H3861   1.391       .  S
C3852      C3853   1.378       .  A
C3852      S3857   1.811       .  S
C3853      C3854   1.404       .  A
C3853      H3858   1.079       .  S
C3854      C3855   1.421       .  A
C3855      C3856   1.397       .  A
C3855      S3859   1.810       .  S
C3856      H3860   1.084       .  S
S3857      H3862   1.407       .  S
S3859      H3863   1.396       .  S
H3864      S4448   1.407       .  S
C3865      C3866   1.404       .  A
C3865      C3870   1.404       .  A
C3865      H3875   1.084       .  S
C3866      C3867   1.418       .  A
C3866      C3871   1.498       .  S
C3867      C3868   1.407       .  A
C3867      S3872   1.804       .  S
C3868      C3869   1.402       .  A
C3868      H3873   1.083       .  S
C3869      C3870   1.415       .  A
C3870      S3874   1.803       .  S
C3871      C3876   1.412       .  A
C3871      C3880   1.404       .  A
S3872      H3888   1.405       .  S
S3874      H3885   1.405       .  S
C3876      C3877   1.407       .  A
C3876      S3881   1.808       .  S
C3877      C3878   1.409       .  A
C3877      H3882   1.082       .  S
C3878      C3879   1.422       .  A
C3879      C3880   1.408       .  A
C3879      S3883   1.800       .  S
C3880      H3884   1.084       .  S
S3881      H3886   1.406       .  S
S3883      H3887   1.408       .  S
C3889      C3890   1.405       .  A
C3889      C3894   1.403       .  A
C3889      H3899   1.084       .  S
C3890      C3891   1.418       .  A
C3890      C3895   1.502       .  S
C3891      C3892   1.409       .  A
C3891      S3896   1.803       .  S
C3892      C3893   1.408       .  A
C3893      C3894   1.416       .  A
C3894      S3898   1.803       .  S
C3895      C3900   1.414       .  A
C3895      C3904   1.408       .  A
S3896      H3912   1.406       .  S
S3898      H3909   1.407       .  S
C3900      C3901   1.407       .  A
C3900      S3905   1.808       .  S
C3901      C3902   1.406       .  A
C3901      H3906   1.082       .  S
C3902      C3903   1.418       .  A
C3903      C3904   1.409       .  A
C3903      S3907   1.802       .  S
C3904      H3908   1.084       .  S
S3905      H3910   1.406       .  S
S3907      H3911   1.407       .  S
C3913      C3914   1.402       .  A
C3913      C3918   1.400       .  A
C3913      H3923   1.084       .  S
C3914      C3915   1.416       .  A
C3914      C3919   1.493       .  S
C3915      C3916   1.406       .  A
C3915      S3920   1.803       .  S
C3916      C3917   1.404       .  A
C3916      H3921   1.083       .  S
C3917      C3918   1.417       .  A
C3918      S3922   1.803       .  S
C3919      C3924   1.411       .  A
C3919      C3928   1.407       .  A
S3920      H3936   1.407       .  S
S3922      H3933   1.407       .  S
C3924      C3925   1.404       .  A
C3924      S3929   1.808       .  S
C3925      C3926   1.407       .  A
C3925      H3930   1.083   1_565  S
C3926      C3927   1.412       .  A
C3927      C3928   1.405       .  A
C3928      H3932   1.084       .  S
S3931      H3935   1.406       .  S
C3937      C3938   1.400       .  A
C3937      C3942   1.396       .  A
C3937      H3947   1.084       .  S
C3938      C3939   1.415       .  A
C3938      C3943   1.481       .  S
C3939      C3940   1.401       .  A
C3939      S3944   1.803       .  S
C3940      C3941   1.401       .  A
C3940      H3945   1.083       .  S
C3941      C3942   1.415       .  A
C3942      S3946   1.804       .  S
C3943      C3948   1.411       .  A
C3943      C3952   1.403       .  A
S3944      H3960   1.406       .  S
S3946      H3957   1.407       .  S
C3948      C3949   1.404       .  A
C3948      S3953   1.806       .  S
C3949      C3950   1.403       .  A
C3949      H3954   1.084       .  S
C3950      C3951   1.410       .  A
C3951      C3952   1.398       .  A
C3951      S3955   1.803       .  S
C3952      H3956   1.084       .  S
S3955      H3959   1.406       .  S
C3961      C3962   1.398       .  A
C3961      C3966   1.400       .  A
C3961      H3971   1.083       .  S
C3962      C3963   1.410       .  A
C3962      C3967   1.483       .  S
C3963      C3964   1.403       .  A
C3963      S3968   1.803       .  S
C3964      C3965   1.410       .  A
C3964      H3969   1.083       .  S
C3965      C3966   1.423       .  A
C3966      S3970   1.808       .  S
C3967      C3972   1.412       .  A
C3967      C3976   1.403       .  A
S3968      H3984   1.406       .  S
C3972      C3973   1.405       .  A
C3972      S3977   1.806       .  S
C3973      C3974   1.402       .  A
C3973      H3978   1.082       .  S
C3974      C3975   1.410       .  A
C3975      C3976   1.399       .  A
C3975      S3979   1.801       .  S
C3976      H3980   1.084       .  S
S3977      H3982   1.407       .  S
S3979      H3983   1.408       .  S
C3985      C3986   1.403       .  A
C3985      C3990   1.401       .  A
C3985      H3995   1.084       .  S
C3986      C3987   1.417       .  A
C3986      C3991   1.484       .  S
C3987      C3988   1.405       .  A
C3987      S3992   1.807       .  S
C3988      C3989   1.401       .  A
C3988      H3993   1.083       .  S
C3989      C3990   1.412       .  A
C3990      S3994   1.801       .  S
C3991      C3996   1.408       .  A
C3991      C4000   1.402       .  A
S3992      H4008   1.402       .  S
S3994      H4005   1.405       .  S
C3996      C3997   1.407       .  A
C3996      S4001   1.806       .  S
C3997      C3998   1.410       .  A
C3997      H4002   1.083       .  S
C3998      C3999   1.417       .  A
C3999      C4000   1.402       .  A
C3999      S4003   1.802       .  S
C4000      H4004   1.084       .  S
S4001      H4006   1.407       .  S
S4003      H4007   1.406   1_565  S
C4009      C4010   1.405       .  A
C4009      C4014   1.405       .  A
C4009      H4019   1.084       .  S
C4010      C4011   1.415       .  A
C4010      C4015   1.491       .  S
C4011      C4012   1.402       .  A
C4011      S4016   1.806       .  S
C4012      C4013   1.406       .  A
C4012      H4017   1.083       .  S
C4013      C4014   1.416       .  A
C4014      S4018   1.802       .  S
C4015      C4020   1.412       .  A
C4015      C4024   1.402       .  A
S4016      H4032   1.404       .  S
S4018      H4029   1.406       .  S
C4020      C4021   1.408       .  A
C4020      S4025   1.806       .  S
C4021      C4022   1.407       .  A
C4021      H4026   1.083       .  S
C4022      C4023   1.417       .  A
C4023      C4024   1.402       .  A
C4023      S4027   1.802       .  S
C4024      H4028   1.084       .  S
S4025      H4030   1.407       .  S
S4027      H4031   1.407       .  S
C4033      C4034   1.402       .  A
C4033      C4038   1.401       .  A
C4033      H4043   1.084       .  S
C4034      C4035   1.412       .  A
C4034      C4039   1.485       .  S
C4035      C4036   1.403       .  A
C4035      S4040   1.802       .  S
C4036      C4037   1.403       .  A
C4036      H4041   1.083       .  S
C4037      C4038   1.414       .  A
C4038      S4042   1.802       .  S
C4039      C4044   1.407       .  A
C4039      C4048   1.401       .  A
S4040      H4056   1.407       .  S
S4042      H4053   1.407       .  S
C4044      C4045   1.407       .  A
C4044      S4049   1.802       .  S
C4045      C4046   1.409       .  A
C4045      H4050   1.083       .  S
C4046      C4047   1.417       .  A
C4047      C4048   1.400       .  A
C4047      S4051   1.802       .  S
C4048      H4052   1.084       .  S
S4049      H4054   1.404       .  S
S4051      H4055   1.407       .  S
C4057      C4058   1.403       .  A
C4057      C4062   1.404       .  A
C4057      H4067   1.084       .  S
C4058      C4059   1.419       .  A
C4058      C4063   1.498       .  S
C4059      C4060   1.408       .  A
C4059      S4064   1.804       .  S
C4060      C4061   1.404       .  A
C4060      H4065   1.084       .  S
C4061      C4062   1.418       .  A
C4062      S4066   1.804       .  S
C4063      C4068   1.412       .  A
C4063      C4072   1.405       .  A
S4064      H4080   1.405       .  S
S4066      H4077   1.405       .  S
C4068      C4069   1.409       .  A
C4068      S4073   1.805       .  S
C4069      C4070   1.407       .  A
C4069      H4074   1.082       .  S
C4070      C4071   1.415       .  A
C4071      C4072   1.405       .  A
C4071      S4075   1.800       .  S
C4072      H4076   1.084       .  S
S4073      H4078   1.407       .  S
S4075      H4079   1.406       .  S
C4081      C4082   1.403       .  A
C4081      C4086   1.402       .  A
C4081      H4091   1.084       .  S
C4082      C4083   1.417       .  A
C4082      C4087   1.489       .  S
C4083      C4084   1.405       .  A
C4083      S4088   1.805       .  S
C4084      C4085   1.403       .  A
C4084      H4089   1.083       .  S
C4085      C4086   1.415       .  A
C4086      S4690   1.803       .  S
C4087      C4692   1.412       .  A
C4087      C4096   1.403       .  A
S4088      H4104   1.404       .  S
S4090      C4686   1.802   1_554  S
S4090      H4101   1.407   1_554  S
C4092      C4687   1.414       .  A
C4092      C4693   1.412       .  A
C4092      S4097   1.804       .  S
C4093      C4692   1.407       .  A
C4093      C4094   1.402       .  A
C4093      H4698   1.083       .  S
C4094      C4095   1.415       .  A
C4095      C4096   1.402       .  A
C4095      S4099   1.803       .  S
C4096      H4100   1.084       .  S
S4097      H4102   1.407   1_556  S
H4098      C4693   1.083       .  S
S4099      H4103   1.405       .  S
C4105      C4706   1.403       .  A
C4105      C4110   1.403       .  A
C4105      H4115   1.084       .  S
C4106      C4705   1.401       .  A
C4106      C4107   1.418       .  A
C4106      C4111   1.488       .  S
C4107      C4108   1.407       .  A
C4107      S4112   1.808       .  S
C4108      C4109   1.405       .  A
C4108      H4113   1.083       .  S
C4109      C4710   1.414       .  A
C4109      N4214   1.446       .  S
C4110      C4709   1.414       .  A
C4110      S4114   1.798       .  S
C4111      C4116   1.412       .  A
C4111      C4120   1.401       .  A
S4112      H4128   1.401       .  S
S4114      H4125   1.407       .  S
C4116      C4117   1.410       .  A
C4116      S4121   1.805       .  S
C4117      C4118   1.404       .  A
C4117      H4122   1.083       .  S
C4118      C4119   1.414       .  A
C4119      C4120   1.401       .  A
C4119      S4123   1.803       .  S
C4120      H4124   1.084       .  S
S4121      H4126   1.407       .  S
S4123      H4127   1.403       .  S
C4129      C4130   1.403       .  A
C4129      C4134   1.400       .  A
C4129      H4139   1.084       .  S
C4130      C4731   1.415       .  A
C4130      C4135   1.489       .  S
C4131      C4730   1.418       .  A
C4131      C4132   1.411       .  A
C4131      S4136   1.805       .  S
C4132      C4733   1.409   1_554  A
C4132      H4137   1.084       .  S
C4133      C4732   1.406       .  A
C4133      C4134   1.414       .  A
C4134      S4138   1.804       .  S
C4135      C4140   1.411       .  A
C4135      C4744   1.403       .  A
S4136      H4152   1.404       .  S
S4138      H4149   1.408       .  S
C4140      C4141   1.408       .  A
C4140      S4145   1.806       .  S
C4141      C4142   1.405       .  A
C4141      H4146   1.082       .  S
C4142      C4743   1.413       .  A
C4142      N4217   1.440       .  S
C4143      C4742   1.413       .  A
C4143      C4144   1.406       .  A
C4143      S4147   1.800       .  S
C4144      C4735   1.406       .  A
C4144      H4148   1.084       .  S
S4145      H4150   1.406       .  S
S4147      H4151   1.405       .  S
C4153      C4154   1.392       .  A
C4153      C4158   1.383       .  A
C4153      H4163   1.084       .  S
C4154      C4155   1.402       .  A
C4154      C4159   1.454       .  S
C4155      C4156   1.388       .  A
C4155      S4160   1.803       .  S
C4156      C4157   1.404       .  A
C4156      H4161   1.073       .  S
C4157      C4158   1.431       .  A
C4158      S4162   1.820       .  S
C4159      C4164   1.401       .  A
C4159      C4168   1.400       .  A
S4160      H4176   1.407       .  S
S4162      H4173   1.392       .  S
C4164      C4165   1.388       .  A
C4164      S4169   1.807       .  S
C4165      C4166   1.403       .  A
C4165      H4170   1.075       .  S
C4166      C4167   1.415       .  A
C4167      C4168   1.391       .  A
C4167      S4171   1.813       .  S
C4168      H4172   1.083       .  S
S4169      H4174   1.407       .  S
S4171      H4175   1.406       .  S
C4177      C4178   1.384       .  A
C4177      C4182   1.386       .  A
C4177      H4187   1.085       .  S
C4178      C4179   1.407       .  A
C4178      C4183   1.442       .  S
C4179      C4180   1.381       .  A
C4179      S4184   1.805       .  S
C4180      C4181   1.399       .  A
C4180      H4185   1.079       .  S
C4181      C4182   1.436       .  A
C4182      S4186   1.813       .  S
C4183      C4188   1.396       .  A
C4183      C4192   1.394       .  A
S4184      H4200   1.405       .  S
S4186      H4197   1.393   1_554  S
C4188      C4189   1.388       .  A
C4188      S4193   1.805       .  S
C4189      C4190   1.406       .  A
C4189      H4194   1.077       .  S
C4190      C4191   1.423       .  A
C4191      C4192   1.383       .  A
C4191      S4195   1.813       .  S
C4192      H4196   1.085       .  S
S4193      H4198   1.407       .  S
S4195      H4199   1.394       .  S
C4201      C4203   1.560       .  S
C4201      C4205   1.528       .  S
C4201      C4204   1.542       .  S
C4201      C4757   1.504       .  S
C4202      C4206   1.530       .  S
C4202      C4208   1.558       .  S
C4202      C4207   1.535       .  S
C4202      C4781   1.502       .  S
C4203      C4211   1.400       .  A
C4204      C4215   1.385       .  A
C4205      C4219   1.370       .  A
C4206      C4209   1.375       .  A
C4207      C4213   1.383       .  A
C4208      C4216   1.399       .  A
C4209      H4222   1.083       .  S
N4210      C4211   1.365       .  A
N4210      C4685   1.445       .  S
C4211      H4212   1.081       .  S
C4213      H4223   1.082       .  S
C4213      N4214   1.357       .  A
C4215      H4221   1.082       .  S
C4216      H4218   1.082       .  S
C4216      N4217   1.366       .  A
C4219      H4220   1.083       .  S
C4224      C4226   1.557       .  S
C4224      C4228   1.551       .  S
C4224      C4227   1.522       .  S
C4224      C4790   1.502       .  S
C4225      C4229   1.550       .  S
C4225      C4231   1.546       .  S
C4225      C4230   1.534       .  S
C4225      C4766   1.504       .  S
C4226      C4234   1.393       .  A
C4226      C4229   1.393       .  A
C4227      C4238   1.373       .  A
C4227      C4230   1.375       .  A
C4228      C4242   1.394       .  A
C4228      C4231   1.387       .  A
C4229      C4232   1.386       .  A
C4230      C4236   1.389       .  A
C4231      C4239   1.384       .  A
C4232      H4245   1.082       .  S
C4232      N4233   1.357       .  A
N4233      C4234   1.358       .  A
N4233      C4613   1.447       .  S
C4234      H4235   1.080       .  S
C4236      H4246   1.082       .  S
C4236      N4237   1.362       .  A
N4237      C4238   1.352       .  A
N4237      C4637   1.436       .  S
C4238      H4244   1.083       .  S
C4239      H4241   1.081       .  S
C4239      N4240   1.349       .  A
N4240      C4242   1.360       .  A
N4240      C4670   1.442       .  S
C4242      H4243   1.081       .  S
O4247     Zr4259   2.462       .  S
O4247      C4249   1.295       .  A
O4248     Zr4285   2.448       .  S
O4248      C4249   1.293       .  A
C4249      C4598   1.498       .  S
O4250     Zr4262   2.435       .  S
O4250      C4252   1.287       .  A
O4251     Zr4286   2.429   1_455  S
C4252      C4550   1.471       .  S
O4253     Zr4262   2.461       .  S
O4253      C4255   1.292       .  A
O4254      C4255   1.290       .  A
C4255      C4733   1.495       .  S
O4256      C4258   1.314   1_455  A
O4257     Zr4286   2.563       .  S
O4257      C4258   1.311       .  A
O4260      H4303   0.990       .  S
O4261      H4302   0.990       .  S
O4261      H4306   0.990   1_655  S
Zr4262     O4263   2.434       .  S
Zr4262     O4264   2.436       .  S
Zr4262     O4266   2.399       .  S
Zr4262     O4265   2.355       .  S
Zr4262     O4290   2.383       .  S
O4263      H4304   0.989       .  S
O4263      H4307   0.989       .  S
O4264      H4297   0.990       .  S
O4266      H4293   0.965       .  S
O4267     Zr4279   2.437       .  S
O4267      C4269   1.287       .  A
O4268     Zr4286   2.441       .  S
C4269      C4565   1.501       .  S
O4273     Zr4282   2.486       .  S
O4273      C4275   1.298       .  A
O4274     Zr4286   2.422       .  S
O4274      C4275   1.288       .  A
C4275      C4694   1.482       .  S
O4276     Zr4279   2.440       .  S
O4276      C4278   1.287       .  A
O4277      C4278   1.292       .  A
C4278      C4718   1.483       .  S
Zr4279     O4280   2.434       .  S
Zr4279     O4281   2.433       .  S
Zr4279     O4287   2.365       .  S
Zr4279     O4288   2.393       .  S
Zr4279     O4291   2.355       .  S
Zr4279     O4289   2.394       .  S
O4280      H4300   0.990       .  S
O4280      H4305   0.990       .  S
O4281      H4301   0.990       .  S
Zr4282     O4292   2.397   1_655  S
O4283      H4299   0.990   1_565  S
O4284      H4308   0.990       .  S
Zr4286     O4292   2.417   1_655  S
O4287      H4295   0.964       .  S
O4291      H4296   0.964       .  S
O4309     Zr4321   2.480       .  S
O4309      C4311   1.297       .  A
O4310     Zr4347   2.401   1_565  S
O4310      C4311   1.285       .  A
C4311      C4526   1.480       .  S
O4312     Zr4324   2.453       .  S
O4312      C4314   1.290       .  A
O4313     Zr4348   2.433   1_455  S
C4314      C4478   1.497       .  S
O4315     Zr4324   2.442       .  S
O4315      C4317   1.288       .  A
O4316      C4317   1.293       .  A
C4317      C4661   1.493       .  S
O4319     Zr4348   2.582       .  S
O4319      C4320   1.317       .  A
O4322      H4365   0.990       .  S
O4323      H4364   0.990       .  S
O4323      H4368   0.990   1_655  S
Zr4324     O4325   2.439       .  S
Zr4324     O4326   2.435       .  S
Zr4324     O4328   2.394       .  S
Zr4324     O4327   2.356       .  S
Zr4324     O4352   2.401       .  S
O4325      H4366   0.990       .  S
O4325      H4369   0.990       .  S
O4326      H4359   0.990       .  S
O4328      H4355   0.966       .  S
O4329     Zr4341   2.446       .  S
O4329      C4331   1.288       .  A
O4330     Zr4348   2.447       .  S
C4331      C4493   1.496       .  S
O4332     Zr4344   2.594       .  S
O4333     Zr4347   2.562       .  S
O4335     Zr4344   2.483       .  S
O4335      C4337   1.299       .  A
O4336     Zr4348   2.446       .  S
O4336      C4337   1.293       .  A
C4337      C4622   1.497       .  S
O4338     Zr4341   2.459       .  S
O4338      C4340   1.291       .  A
O4339      C4340   1.286       .  A
C4340      C4646   1.486       .  S
Zr4341     O4342   2.438       .  S
Zr4341     O4343   2.434       .  S
Zr4341     O4349   2.366   1_565  S
Zr4341     O4350   2.392       .  S
Zr4341     O4353   2.361       .  S
Zr4341     O4351   2.398       .  S
O4342      H4362   0.990       .  S
O4342      H4367   0.990       .  S
O4343      H4363   0.990       .  S
Zr4344     O4346   2.435       .  S
Zr4344     O4354   2.420   1_655  S
O4345      H4361   0.990   1_545  S
O4346      H4370   0.990       .  S
Zr4348     O4354   2.423   1_655  S
O4349      H4357   0.965       .  S
O4352      H4356   0.966       .  S
O4353      H4358   0.966       .  S
C4371      C4373   1.552       .  S
C4371      C4375   1.553       .  S
C4371      C4374   1.518       .  S
C4371      C4421   1.501       .  S
C4372      C4376   1.524       .  S
C4372      C4378   1.553       .  S
C4372      C4377   1.538       .  S
C4372      C4445   1.501       .  S
C4373      C4381   1.393       .  A
C4373      C4376   1.377       .  A
C4374      C4385   1.372       .  A
C4374      C4377   1.372       .  A
C4375      C4389   1.387       .  A
C4375      C4378   1.404       .  A
C4376      C4379   1.375       .  A
C4377      C4383   1.387       .  A
C4378      C4386   1.381       .  A
C4379      H4392   1.083       .  S
C4379      N4380   1.352       .  A
N4380      C4381   1.361       .  A
N4380      C4589   1.440       .  S
C4381      H4382   1.082       .  S
C4383      H4393   1.082       .  S
C4383      N4384   1.360       .  A
N4384      C4385   1.353       .  A
N4384      C4541   1.436       .  S
C4385      H4391   1.083       .  S
C4386      H4388   1.079       .  S
C4386      N4387   1.354       .  A
N4387      C4389   1.358       .  A
N4387      C4574   1.440       .  S
C4389      H4390   1.081       .  S
C4394      C4396   1.554       .  S
C4394      C4398   1.544       .  S
C4394      C4397   1.548       .  S
C4394      C4454   1.514       .  S
C4395      C4399   1.524       .  S
C4395      C4401   1.557       .  S
C4395      C4400   1.528       .  S
C4395      C4430   1.500       .  S
C4396      C4404   1.384       .  A
C4396      C4399   1.378       .  A
C4397      C4408   1.396       .  A
C4397      C4400   1.383       .  A
C4398      C4412   1.381       .  A
C4398      C4401   1.393       .  A
C4399      C4402   1.386       .  A
C4400      C4406   1.373       .  A
C4401      C4409   1.388       .  A
C4402      H4415   1.082       .  S
C4402      N4403   1.357       .  A
N4403      C4404   1.350       .  A
N4403      C4517   1.438       .  S
C4404      H4405   1.080       .  S
C4406      H4416   1.082       .  S
C4406      N4407   1.348       .  A
N4407      C4408   1.364       .  A
N4407      C4469   1.440       .  S
C4408      H4414   1.082       .  S
C4409      H4411   1.081       .  S
C4409      N4410   1.361       .  A
N4410      C4412   1.359       .  A
N4410      C4502   1.450       .  S
C4412      H4413   1.081       .  S
C4417      C4418   1.401       .  A
C4417      C4422   1.391       .  A
C4417      H4427   1.084       .  S
C4418      C4419   1.403       .  A
C4418      C4423   1.447       .  S
C4419      C4420   1.381       .  A
C4419      S4424   1.810       .  S
C4420      C4421   1.405       .  A
C4420      H4425   1.082       .  S
C4421      C4422   1.414       .  A
C4422      S4426   1.803       .  S
C4423      C4428   1.412       .  A
C4423      C4432   1.392       .  A
S4424      H4440   1.406       .  S
S4426      H4437   1.402       .  S
C4428      C4429   1.385       .  A
C4428      S4433   1.812       .  S
C4429      C4430   1.396       .  A
C4429      H4434   1.080       .  S
C4430      C4431   1.421       .  A
C4431      C4432   1.384       .  A
C4431      S4435   1.810       .  S
C4432      H4436   1.084       .  S
S4433      H4438   1.407       .  S
S4435      H4439   1.399       .  S
C4441      C4442   1.397   1_556  A
C4441      C4446   1.375       .  A
C4441      H4451   1.084   1_556  S
C4442      C4443   1.402   1_554  A
C4443      C4444   1.391       .  A
C4443      S4448   1.802   1_556  S
C4444      C4445   1.406       .  A
C4444      H4449   1.073       .  S
C4445      C4446   1.426       .  A
C4446      S4450   1.823       .  S
C4447      C4452   1.400       .  A
C4447      C4456   1.405       .  A
S4450      H4461   1.392       .  S
C4452      C4453   1.379       .  A
C4452      S4457   1.812       .  S
C4453      C4454   1.402       .  A
C4453      H4458   1.079       .  S
C4454      C4455   1.418       .  A
C4455      C4456   1.396       .  A
C4455      S4459   1.809       .  S
C4456      H4460   1.084       .  S
S4457      H4462   1.407       .  S
S4459      H4463   1.396       .  S
C4465      C4466   1.404       .  A
C4465      C4470   1.405       .  A
C4465      H4475   1.084       .  S
C4466      C4467   1.416       .  A
C4466      C4471   1.493       .  S
C4467      C4468   1.406       .  A
C4467      S4472   1.804       .  S
C4468      C4469   1.403       .  A
C4468      H4473   1.083       .  S
C4469      C4470   1.413       .  A
C4470      S4474   1.801       .  S
C4471      C4476   1.411       .  A
C4471      C4480   1.403       .  A
S4472      H4488   1.405       .  S
S4474      H4485   1.406       .  S
C4476      C4477   1.407       .  A
C4476      S4481   1.808       .  S
C4477      C4478   1.408       .  A
C4477      H4482   1.082       .  S
C4478      C4479   1.419       .  A
C4479      C4480   1.407       .  A
C4479      S4483   1.801       .  S
C4480      H4484   1.084       .  S
S4481      H4486   1.407       .  S
S4483      H4487   1.407       .  S
C4489      C4490   1.405       .  A
C4489      C4494   1.404       .  A
C4489      H4499   1.084       .  S
C4490      C4491   1.415       .  A
C4490      C4495   1.497       .  S
C4491      C4492   1.407       .  A
C4491      S4496   1.803       .  S
C4492      C4493   1.408       .  A
C4493      C4494   1.419       .  A
C4494      S4498   1.803       .  S
C4495      C4500   1.412       .  A
C4495      C4504   1.407       .  A
S4496      H4512   1.406       .  S
S4498      H4509   1.407       .  S
C4500      C4501   1.406       .  A
C4500      S4505   1.806       .  S
C4501      C4502   1.406       .  A
C4501      H4506   1.082       .  S
C4502      C4503   1.417       .  A
C4503      C4504   1.408       .  A
C4503      S4507   1.802       .  S
C4504      H4508   1.084       .  S
S4505      H4510   1.407       .  S
S4507      H4511   1.407       .  S
C4513      C4514   1.402       .  A
C4513      C4518   1.397       .  A
C4513      H4523   1.084       .  S
C4514      C4515   1.415       .  A
C4514      C4519   1.485       .  S
C4515      C4516   1.403       .  A
C4515      S4520   1.804       .  S
C4516      C4517   1.404       .  A
C4516      H4521   1.083       .  S
C4517      C4518   1.413       .  A
C4518      S4522   1.803       .  S
C4519      C4524   1.409       .  A
C4519      C4528   1.407       .  A
S4520      H4536   1.406       .  S
S4522      H4533   1.406       .  S
C4524      C4525   1.397       .  A
C4524      S4529   1.809       .  S
C4525      C4526   1.406       .  A
C4525      H4530   1.083       .  S
C4526      C4527   1.413       .  A
C4527      C4528   1.405       .  A
C4528      H4532   1.084       .  S
S4531      H4535   1.407       .  S
C4537      C4538   1.402       .  A
C4537      C4542   1.397       .  A
C4537      H4547   1.084       .  S
C4538      C4539   1.415       .  A
C4538      C4543   1.484       .  S
C4539      C4540   1.400       .  A
C4539      S4544   1.803       .  S
C4540      C4541   1.401       .  A
C4540      H4545   1.083       .  S
C4541      C4542   1.414       .  A
C4542      S4546   1.803       .  S
C4543      C4548   1.412       .  A
C4543      C4552   1.404       .  A
S4544      H4560   1.406       .  S
S4546      H4557   1.407       .  S
C4548      C4549   1.403       .  A
C4548      S4553   1.807       .  S
C4549      C4550   1.404       .  A
C4549      H4554   1.084       .  S
C4550      C4551   1.411       .  A
C4551      C4552   1.398       .  A
C4551      S4555   1.804       .  S
C4552      H4556   1.084       .  S
S4555      H4559   1.406       .  S
C4561      C4562   1.399       .  A
C4561      C4566   1.404       .  A
C4561      H4571   1.083       .  S
C4562      C4563   1.412       .  A
C4562      C4567   1.491       .  S
C4563      C4564   1.407       .  A
C4563      S4568   1.802       .  S
C4564      C4565   1.409       .  A
C4564      H4569   1.083       .  S
C4565      C4566   1.425       .  A
C4566      S4570   1.809       .  S
C4567      C4572   1.412       .  A
C4567      C4576   1.404       .  A
S4568      H4584   1.406       .  S
C4572      C4573   1.407       .  A
C4572      S4577   1.805       .  S
C4573      C4574   1.402       .  A
C4573      H4578   1.082       .  S
C4574      C4575   1.413       .  A
C4575      C4576   1.403       .  A
C4575      S4579   1.803       .  S
C4576      H4580   1.084       .  S
S4577      H4582   1.407       .  S
S4579      H4583   1.407       .  S
C4585      C4586   1.408       .  A
C4585      C4590   1.405       .  A
C4585      H4595   1.084       .  S
C4586      C4587   1.418       .  A
C4586      C4591   1.497       .  S
C4587      C4588   1.401       .  A
C4587      S4592   1.804       .  S
C4588      C4589   1.401       .  A
C4588      H4593   1.083       .  S
C4589      C4590   1.412       .  A
C4590      S4594   1.801       .  S
C4591      C4596   1.413       .  A
C4591      C4600   1.405       .  A
S4592      H4608   1.406       .  S
S4594      H4605   1.406       .  S
C4596      C4597   1.406       .  A
C4596      S4601   1.807       .  S
C4597      C4598   1.410       .  A
C4597      H4602   1.082       .  S
C4598      C4599   1.418       .  A
C4599      C4600   1.402       .  A
C4599      S4603   1.802       .  S
C4600      H4604   1.084       .  S
S4601      H4606   1.407       .  S
S4603      H4607   1.407   1_565  S
C4609      C4610   1.406       .  A
C4609      C4614   1.408       .  A
C4609      H4619   1.084       .  S
C4610      C4611   1.416       .  A
C4610      C4615   1.494       .  S
C4611      C4612   1.405       .  A
C4611      S4616   1.808       .  S
C4612      C4613   1.404       .  A
C4612      H4617   1.083       .  S
C4613      C4614   1.414       .  A
C4614      S4618   1.801       .  S
C4615      C4620   1.412       .  A
C4615      C4624   1.402       .  A
S4616      H4632   1.402       .  S
S4618      H4629   1.406       .  S
C4620      C4621   1.411       .  A
C4620      S4625   1.805       .  S
C4621      C4622   1.408       .  A
C4621      H4626   1.083       .  S
C4622      C4623   1.419       .  A
C4623      C4624   1.404       .  A
C4623      S4627   1.801       .  S
C4624      H4628   1.084       .  S
S4625      H4630   1.407       .  S
S4627      H4631   1.407       .  S
C4633      C4634   1.404       .  A
C4633      C4638   1.403       .  A
C4633      H4643   1.084       .  S
C4634      C4635   1.412       .  A
C4634      C4639   1.486       .  S
C4635      C4636   1.402       .  A
C4635      S4640   1.802       .  S
C4636      C4637   1.402       .  A
C4636      H4641   1.083       .  S
C4637      C4638   1.411       .  A
C4638      S4642   1.802       .  S
C4639      C4644   1.408       .  A
C4639      C4648   1.402       .  A
S4640      H4656   1.407       .  S
S4642      H4653   1.406       .  S
C4644      C4645   1.409       .  A
C4644      S4649   1.801       .  S
C4645      C4646   1.409       .  A
C4645      H4650   1.083       .  S
C4646      C4647   1.415       .  A
C4647      C4648   1.399       .  A
C4647      S4651   1.803       .  S
C4648      H4652   1.084       .  S
S4649      H4654   1.405       .  S
S4651      H4655   1.407       .  S
C4657      C4658   1.401       .  A
C4657      C4662   1.401       .  A
C4657      H4667   1.084       .  S
C4658      C4659   1.418       .  A
C4658      C4663   1.496       .  S
C4659      C4660   1.410       .  A
C4659      S4664   1.803       .  S
C4660      C4661   1.405       .  A
C4660      H4665   1.083       .  S
C4661      C4662   1.419       .  A
C4662      S4666   1.804       .  S
C4663      C4668   1.414       .  A
C4663      C4672   1.404       .  A
S4664      H4680   1.406       .  S
S4666      H4677   1.406       .  S
C4668      C4669   1.411       .  A
C4668      S4673   1.806       .  S
C4669      C4670   1.404       .  A
C4669      H4674   1.082       .  S
C4670      C4671   1.415       .  A
C4671      C4672   1.404       .  A
C4671      S4675   1.804       .  S
C4672      H4676   1.084       .  S
S4673      H4678   1.406       .  S
S4675      H4679   1.403       .  S
C4681      C4682   1.402       .  A
C4681      C4686   1.400       .  A
C4681      H4691   1.084       .  S
C4682      C4683   1.419       .  A
C4682      C4687   1.491       .  S
C4683      C4684   1.410       .  A
C4683      S4688   1.808       .  S
C4684      C4685   1.405       .  A
C4684      H4689   1.083       .  S
C4685      C4686   1.414       .  A
C4687      C4696   1.401       .  A
S4688      H4704   1.402       .  S
S4690      H4701   1.406       .  S
C4692      S4697   1.805       .  S
C4693      C4694   1.405       .  A
C4694      C4695   1.413       .  A
C4695      C4696   1.400       .  A
C4695      S4699   1.802       .  S
C4696      H4700   1.084       .  S
S4697      H4702   1.407       .  S
S4699      H4703   1.406       .  S
C4705      C4710   1.401       .  A
C4705      H4715   1.084       .  S
C4706      C4707   1.414       .  A
C4706      C4711   1.487       .  S
C4707      C4708   1.402       .  A
C4707      S4712   1.803       .  S
C4708      C4709   1.403       .  A
C4708      H4713   1.083       .  S
C4710      S4714   1.796       .  S
C4711      C4716   1.412   1_556  A
C4711      C4720   1.400       .  A
S4712      H4728   1.406       .  S
S4714      H4725   1.407       .  S
C4716      C4717   1.410   1_554  A
C4716      S4721   1.805       .  S
C4717      C4718   1.405       .  A
C4717      H4722   1.083   1_556  S
C4718      C4719   1.416       .  A
C4719      C4720   1.398       .  A
C4719      S4723   1.803       .  S
C4720      H4724   1.084       .  S
S4721      H4726   1.407       .  S
S4723      H4727   1.405       .  S
C4729      C4730   1.404   1_556  A
C4729      C4734   1.402       .  A
C4729      H4739   1.084       .  S
C4730      C4735   1.499       .  S
C4731      C4732   1.407       .  A
C4731      S4736   1.804       .  S
C4732      H4737   1.084       .  S
C4733      C4734   1.416       .  A
C4734      S4738   1.803       .  S
C4735      C4740   1.413       .  A
S4736      H4752   1.405       .  S
S4738      H4749   1.407       .  S
C4740      C4741   1.410       .  A
C4740      S4745   1.804       .  S
C4741      C4742   1.405       .  A
C4741      H4746   1.082       .  S
C4743      C4744   1.403       .  A
C4743      S4747   1.800       .  S
C4744      H4748   1.084       .  S
S4745      H4750   1.407       .  S
S4747      H4751   1.403       .  S
C4753      C4754   1.391       .  A
C4753      C4758   1.383       .  A
C4753      H4763   1.084       .  S
C4754      C4755   1.401       .  A
C4754      C4759   1.451       .  S
C4755      C4756   1.387       .  A
C4755      S4760   1.801       .  S
C4756      C4757   1.404       .  A
C4756      H4761   1.076       .  S
C4757      C4758   1.434       .  A
C4758      S4762   1.821       .  S
C4759      C4764   1.400       .  A
C4759      C4768   1.403       .  A
S4760      H4776   1.408       .  S
S4762      H4773   1.393       .  S
C4764      C4765   1.387       .  A
C4764      S4769   1.807       .  S
C4765      C4766   1.405       .  A
C4765      H4770   1.078       .  S
C4766      C4767   1.409       .  A
C4767      C4768   1.388       .  A
C4767      S4771   1.811       .  S
C4768      H4772   1.083       .  S
S4769      H4774   1.408       .  S
S4771      H4775   1.406       .  S
C4777      C4778   1.384       .  A
C4777      C4782   1.386       .  A
C4777      H4787   1.085       .  S
C4778      C4779   1.407       .  A
C4778      C4783   1.444       .  S
C4779      C4780   1.383       .  A
C4779      S4784   1.805       .  S
C4780      C4781   1.400       .  A
C4780      H4785   1.079       .  S
C4781      C4782   1.434       .  A
C4782      S4786   1.812       .  S
C4783      C4788   1.397       .  A
C4783      C4792   1.393       .  A
S4784      H4800   1.405       .  S
S4786      H4797   1.393       .  S
C4788      C4789   1.389       .  A
C4788      S4793   1.805       .  S
C4789      C4790   1.405       .  A
C4789      H4794   1.076       .  S
C4790      C4791   1.425       .  A
C4791      C4792   1.384       .  A
C4791      S4795   1.815       .  S
C4792      H4796   1.085       .  S
S4793      H4798   1.407       .  S
S4795      H4799   1.393       .  S
