geometry optimzed in LAMMPS
_audit_creation_date              2020-11-30 
_audit_creation_method            'lammps2cif' 
_symmetry_space_group_name_H-M    'P1' 
_symmetry_Int_Tables_number       1 
_symmetry_cell_setting            triclinic 
loop_ 
_symmetry_equiv_pos_as_xyz 
  x,y,z 
_cell_length_a                    52.55992594421748 
_cell_length_b                    52.947265742664584 
_cell_length_c                    31.37397479542367 
_cell_angle_alpha                 91.80332066825594 
_cell_angle_beta                  89.29861454206448 
_cell_angle_gamma                 122.03196758573246 
loop_ 
_atom_site_label 
_atom_site_type_symbol 
_atom_site_fract_x 
_atom_site_fract_y 
_atom_site_fract_z 
_atom_site_charge 
C1          C  0.39767558  0.08050209  0.23647359     0.02740
C2          C  0.38967877  0.08615225  0.27705246    -0.13410
C3          C  0.37564176  0.10248440  0.28117552     0.00240
C4          C  0.36892204  0.11231950  0.24442165    -0.11940
C5          C  0.37676131  0.10670591  0.20388888     0.02730
C6          C  0.39197741  0.09161072  0.20037874    -0.11360
H7          H  0.39304280  0.07666681  0.30496057     0.08330
H8          H  0.35592837  0.12273808  0.24730505     0.05860
H9          H  0.39699542  0.08614240  0.16903951     0.05700
C10         C  0.34676673  0.31296742  0.25355563     0.02740
C11         C  0.34433764  0.29552623  0.21719450    -0.13410
C12         C  0.32635309  0.26448856  0.21741010     0.00240
C13         C  0.31417177  0.25031740  0.25566598    -0.11940
C14         C  0.31980995  0.26720646  0.29344249     0.02730
C15         C  0.33463989  0.29834361  0.29218675    -0.11360
H16         H  0.35620562  0.30584988  0.18825753     0.08330
H17         H  0.30188168  0.22619908  0.25646299     0.05860
H18         H  0.33746109  0.31085026  0.32156506     0.05700
Fe19       Fe  0.24949969  0.14679119  0.99921965     1.65780
Fe20       Fe  0.26695164  0.09294145  0.49470436     1.73250
Fe21       Fe  0.32283541  0.16698383  0.49529306     1.54410
O22         O  0.31730536  0.18999983  0.44855545    -0.82060
O23         O  0.29782116  0.09963165  0.04103133    -0.80370
O24         O  0.27113587  0.18051898  0.45626585    -0.84570
O25         O  0.27032299  0.17573682  0.05023187    -0.79430
O26         O  0.33291062  0.14574228  0.44767002    -0.81200
O27         O  0.23605813  0.08152779  0.04316183    -0.83940
C28         C  0.29734350  0.19242833  0.06228005     0.96820
C29         C  0.29657424  0.19423764  0.43858626     1.04260
O30         O  0.27974898  0.13550873  0.49628588    -1.12930
O31         O  0.23448719  0.08168081  0.44836102    -0.75360
O32         O  0.22578197  0.11867666  0.44867070    -0.78850
O33         O  0.31872818  0.19237632  0.04306900    -0.79530
C34         C  0.22187543  0.09440245  0.43330359     0.95730
O35         O  0.22322661  0.11515032  0.04265855    -0.77490
O36         O  0.29611725  0.09819829  0.44599449    -0.82690
C37         C  0.32192701  0.12185794  0.05617876     0.98350
C38         C  0.32073504  0.11942043  0.43195220     1.04270
O39         O  0.33341274  0.14788964  0.04220151    -0.78330
C40         C  0.22048181  0.09181127  0.05707096     1.02570
C41         C  0.09957064  0.52424626  0.24588330     0.02740
C42         C  0.11525331  0.02883093  0.28426349    -0.13410
C43         C  0.14654950  0.04221413  0.28409695     0.00240
C44         C  0.16181218  0.04858517  0.24514778    -0.11940
C45         C  0.14644301  0.04264256  0.20649867     0.02730
C46         C  0.11554782  0.03117775  0.20721453    -0.11360
H47         H  0.10350078  0.02324080  0.31435419     0.08020
H48         H  0.18605180  0.05971982  0.24511908     0.05860
H49         H  0.10411017  0.02838706  0.17732352     0.05700
Fe50       Fe  0.13750056  0.30139346  0.00859124     1.65780
Fe51       Fe  0.11657599  0.35255149  0.50658179     1.73250
Fe52       Fe  0.06288882  0.27754922  0.50692780     1.54420
O53         O  0.06925327  0.25420616  0.45886098    -0.82060
O54         O  0.08621362  0.34591681  0.05401713    -0.80370
O55         O  0.11669637  0.26690823  0.46336514    -0.84570
O56         O  0.11815952  0.27246832  0.05830127    -0.79430
O57         O  0.05023619  0.29590278  0.46027339    -0.81200
O58         O  0.14841394  0.36733885  0.05432379    -0.83940
C59         C  0.09152515  0.25544696  0.07122647     0.96820
C60         C  0.09086304  0.25167113  0.44636042     1.04260
O61         O  0.10564369  0.31052484  0.50736695    -1.12930
O62         O  0.14852832  0.36378092  0.45924609    -0.75360
O63         O  0.16025490  0.32901168  0.45888362    -0.78850
O64         O  0.06934047  0.25456637  0.05377429    -0.79530
C65         C  0.16269132  0.35220109  0.44398281     0.95730
O66         O  0.16283497  0.33482170  0.05366254    -0.77490
O67         O  0.08636053  0.34393921  0.45877515    -0.82690
C68         C  0.06315020  0.32348547  0.06953238     0.98350
C69         C  0.06205178  0.32159052  0.44473988     1.04270
O70         O  0.05182531  0.29708510  0.05498193    -0.78330
C71         C  0.16461876  0.35836920  0.06839548     1.02570
C72         C  0.49540840  0.37221999  0.25973826     0.02740
C73         C  0.50449082  0.36435687  0.22184373    -0.13410
C74         C  0.51305615  0.34349631  0.22137217     0.00240
C75         C  0.01462483  0.33186896  0.25994918    -0.11940
C76         C  0.50949616  0.34210158  0.29890128     0.02730
C77         C  0.49822312  0.36106200  0.29862790    -0.11360
H78         H  0.50540612  0.37500715  0.19243431     0.08330
H79         H  0.02223794  0.31643544  0.26007017     0.05860
H80         H  0.49261643  0.36766964  0.32846502     0.05700
C81         C  0.28616149  0.42066143  0.26158789     0.02740
C82         C  0.27286601  0.41902101  0.22176180    -0.13410
C83         C  0.24167310  0.40586522  0.21754451     0.00240
C84         C  0.22426583  0.39685162  0.25491308    -0.11940
C85         C  0.23746256  0.40005529  0.29503906     0.02730
C86         C  0.26841980  0.41198978  0.29826667    -0.11360
H87         H  0.28694609  0.42715627  0.19384724     0.08330
H88         H  0.20012288  0.38620933  0.25279108     0.05860
H89         H  0.27825457  0.41275277  0.32882819     0.05700
C90         C  0.04205834  0.13172539  0.25190391     0.02740
C91         C  0.05251983  0.14701965  0.29145345    -0.13410
C92         C  0.06779873  0.17820458  0.29403588     0.00240
C93         C  0.07444000  0.19441217  0.25679985    -0.11940
C94         C  0.06513506  0.17975913  0.21685664     0.02730
C95         C  0.04902927  0.14843823  0.21462994    -0.11360
H96         H  0.04807602  0.13478595  0.32044855     0.08330
H97         H  0.08576872  0.21848878  0.25913074     0.05860
H98         H  0.04140683  0.13709722  0.18381003     0.05700
C99         C  0.43076823  0.49191628  0.22484961     0.01900
C100        C  0.41074463  0.46119855  0.23634142     0.01900
C101        C  0.42132024  0.44144555  0.23858345     0.01900
C102        C  0.45207041  0.45199173  0.23415944     0.01900
C103        C  0.47291133  0.48297279  0.23009053     0.01900
C104        C  0.46264304  0.00312478  0.22654979     0.01900
C105        C  0.48067037  0.05027442  0.26903865    -0.09540
C106        C  0.48502467  0.03593964  0.23380966     0.06650
C107        C  0.01020313  0.05320989  0.20734750    -0.03310
C108        C  0.02927779  0.08379019  0.21576539    -0.07760
C109        C  0.02343267  0.09846875  0.24884559     0.05770
C110        C  0.99865339  0.08117789  0.27577992    -0.02790
Br111      Br  0.48523789  0.09801657  0.31883417    -0.02480
H112        H  0.46179937  0.03748464  0.28997429     0.09680
H113        H  0.04819157  0.09649969  0.19486147     0.07700
Br114      Br  0.01814409  0.03832308  0.15563618    -0.02910
C115        C  0.33953453  0.44850974  0.29174015    -0.09540
C116        C  0.31758686  0.42776790  0.26270122     0.06650
C117        C  0.32629033  0.41442288  0.23169349    -0.03310
C118        C  0.35614808  0.42802049  0.22053966    -0.07760
C119        C  0.37869224  0.44866517  0.24847305     0.05770
C120        C  0.36992212  0.45737714  0.28640703    -0.02790
Br121      Br  0.39896891  0.98453925  0.32758926    -0.02480
H122        H  0.33328116  0.45807270  0.31770551     0.09680
H123        H  0.36142632  0.42196796  0.19021180     0.07700
Br124      Br  0.29962245  0.37371327  0.21443975    -0.02910
C125        C  0.47992378  0.43488427  0.27726879    -0.09540
C126        C  0.46269086  0.43094019  0.24079275     0.06650
C127        C  0.45566972  0.40693176  0.21210678    -0.03310
C128        C  0.46444030  0.38707025  0.22148055    -0.07760
C129        C  0.48305451  0.39186755  0.25660699     0.05770
C130        C  0.49122336  0.41659853  0.28437130    -0.02790
Br131      Br  0.02031019  0.42914524  0.32931533    -0.02480
H132        H  0.98561600  0.45312665  0.29966125     0.09680
H133        H  0.45783310  0.36837487  0.19952986     0.07700
Br134      Br  0.43756837  0.40130970  0.15692554    -0.02910
C135        C  0.05595853  0.21244502  0.11590235    -0.09540
C136        C  0.08570811  0.23563157  0.10787950     0.06650
C137        C  0.10864810  0.23942290  0.13575480    -0.03310
C138        C  0.10142444  0.22044735  0.17005815    -0.07760
C139        C  0.07171653  0.19760630  0.17800835     0.05770
C140        C  0.04883639  0.19373622  0.15049329    -0.02790
Br141      Br  0.00715661  0.16494964  0.16046342    -0.02480
H142        H  0.03783878  0.20900418  0.09551873     0.09680
H143        H  0.11918397  0.22387430  0.19126302     0.07700
Br144      Br  0.15015495  0.27076008  0.13130423    -0.02910
C145        C  0.05678654  0.21570831  0.39013694    -0.09540
C146        C  0.08532679  0.23058540  0.40975464     0.06650
C147        C  0.10755235  0.22574391  0.39232403    -0.03310
C148        C  0.10116794  0.20763426  0.35542254    -0.07760
C149        C  0.07301016  0.19395420  0.33559601     0.05770
C150        C  0.05063796  0.19776553  0.35350770    -0.02790
Br151      Br  0.01176910  0.18033902  0.32743683    -0.02480
H152        H  0.03915738  0.21863637  0.40244677     0.09680
H153        H  0.11847173  0.20475411  0.34153966     0.07700
Br154      Br  0.14719926  0.24312000  0.41584403    -0.02910
C155        C  0.18216879  0.34599108  0.37461388    -0.09540
C156        C  0.18214244  0.36535545  0.40629638     0.06650
C157        C  0.20079457  0.39643967  0.40120073    -0.03310
C158        C  0.21879976  0.40745628  0.36482744    -0.07760
C159        C  0.21833013  0.38796194  0.33306960     0.05770
C160        C  0.19992486  0.35701583  0.33823724    -0.02790
Br161      Br  0.19905859  0.32895524  0.29705944    -0.02480
H162        H  0.16809769  0.32208539  0.37798344     0.09680
H163        H  0.23323898  0.43130835  0.36129516     0.07700
Br164      Br  0.20406862  0.42483070  0.44384754    -0.02910
C165        C  0.21180069  0.37305280  0.10570985    -0.09540
C166        C  0.18676444  0.37564920  0.10316099     0.06650
C167        C  0.18358900  0.39362765  0.13448364    -0.03310
C168        C  0.20267626  0.40449486  0.17034769    -0.07760
C169        C  0.22626826  0.39944470  0.17487987     0.05770
C170        C  0.23185472  0.38537767  0.13992304    -0.02790
Br171      Br  0.26539784  0.38094227  0.13420562    -0.02480
H172        H  0.21583554  0.36104636  0.08063512     0.09680
H173        H  0.19872904  0.41662008  0.19529971     0.07700
Br174      Br  0.15388666  0.40412282  0.13115265    -0.02910
C175        C  0.05162169  0.34435337  0.33676401    -0.09540
C176        C  0.02172312  0.33710609  0.33812144     0.06650
C177        C  0.00474670  0.32418104  0.37516905    -0.03310
C178        C  0.01785173  0.31862453  0.40965119    -0.07760
C179        C  0.04778457  0.32596210  0.40779693     0.05770
C180        C  0.06452030  0.33866861  0.37069559    -0.02790
Br181      Br  0.10456902  0.34691868  0.36333550    -0.02480
H182        H  0.06506345  0.35420904  0.30858727     0.09680
H183        H  0.00475355  0.30880586  0.43807683     0.07700
Br184      Br  0.96352165  0.31254408  0.37951513    -0.02910
C185        C  0.05170996  0.33797595  0.18380199    -0.09540
C186        C  0.02449234  0.33699957  0.18174693     0.06650
C187        C  0.00936664  0.33030077  0.14208050    -0.03310
C188        C  0.02241231  0.32630427  0.10538131    -0.07760
C189        C  0.04986973  0.32804129  0.10784346     0.05770
C190        C  0.06392688  0.33272985  0.14753936    -0.02790
Br191      Br  0.09843134  0.32965195  0.15427542    -0.02480
H192        H  0.06358670  0.34271899  0.21384200     0.09680
H193        H  0.01093788  0.32144007  0.07495338     0.07700
Br194      Br  0.47009624  0.32413275  0.13631783    -0.02910
C195        C  0.02216399  0.01218575  0.26915515    -0.09540
C196        C  0.00566426  0.49412811  0.23380631     0.06650
C197        C  0.02014561  0.48540512  0.20405646    -0.03310
C198        C  0.04960540  0.49336407  0.21107517    -0.07760
C199        C  0.06680133  0.51285561  0.24489291     0.05770
C200        C  0.05274864  0.02282180  0.27377807    -0.02790
Br201      Br  0.07396167  0.05338137  0.31704108    -0.02480
H202        H  0.01142600  0.01892970  0.29256091     0.09680
H203        H  0.05956990  0.48530394  0.18837869     0.07700
Br204      Br  0.50281612  0.46616980  0.15022056    -0.02910
C205        C  0.20263458  0.05749606  0.11826057    -0.09540
C206        C  0.19904754  0.07668081  0.09244881     0.06650
C207        C  0.17576001  0.08183113  0.10232296    -0.03310
C208        C  0.15860766  0.06998055  0.13897201    -0.07760
C209        C  0.16331849  0.05217433  0.16589808     0.05770
C210        C  0.18486266  0.04504836  0.15438381    -0.02790
Br211      Br  0.19023961  0.01760813  0.18575249    -0.02480
H212        H  0.21970475  0.05249388  0.11084557     0.09680
H213        H  0.14182562  0.07529294  0.14693099     0.07700
Br214      Br  0.16502888  0.10390324  0.06709936    -0.02910
C215        C  0.18057338  0.05007207  0.39392026    -0.09540
C216        C  0.20216496  0.08081299  0.39568520     0.06650
C217        C  0.20477315  0.09834490  0.36106548    -0.03310
C218        C  0.18586153  0.08519801  0.32590083    -0.07760
C219        C  0.16437520  0.05453091  0.32380960     0.05770
C220        C  0.16157660  0.03684575  0.35834742    -0.02790
Br221      Br  0.13339811  0.99461573  0.35759016    -0.02480
H222        H  0.17844666  0.03634999  0.42030001     0.09680
H223        H  0.18830843  0.09902663  0.29946896     0.07700
Br224      Br  0.23535110  0.13987260  0.35799708    -0.02910
C225        C  0.38310019  0.39084749  0.21035114    -0.09540
C226        C  0.39989616  0.40890107  0.24520083     0.06650
C227        C  0.39742741  0.39550741  0.28425977    -0.03310
C228        C  0.38021181  0.36436835  0.28664059    -0.07760
C229        C  0.36333106  0.34614999  0.25125466     0.05770
C230        C  0.36359748  0.36030540  0.21352100    -0.02790
Br231      Br  0.33697557  0.34076127  0.16543407    -0.02480
H232        H  0.38540875  0.40063692  0.17970136     0.09680
H233        H  0.38058715  0.35461197  0.31621930     0.07700
Br234      Br  0.41731392  0.41879941  0.33476970    -0.02910
C235        C  0.28766870  0.24057719  0.35541379    -0.09540
C236        C  0.31498699  0.25232709  0.33404684     0.06650
C237        C  0.33670367  0.24694165  0.34888891    -0.03310
C238        C  0.33042165  0.22876780  0.38352526    -0.07760
C239        C  0.30253095  0.21557583  0.40436448     0.05770
C240        C  0.28130199  0.22255987  0.39068964    -0.02790
Br241      Br  0.24316406  0.20857044  0.41750313    -0.02480
H242        H  0.27097799  0.24485804  0.34396520     0.09680
H243        H  0.34738841  0.22442253  0.39335221     0.07700
Br244      Br  0.37490093  0.26289453  0.32137556    -0.02910
C245        C  0.29042851  0.23270360  0.16074108    -0.09540
C246        C  0.31956490  0.24685549  0.17736253     0.06650
C247        C  0.34152656  0.24429518  0.15538210    -0.03310
C248        C  0.33388952  0.22698080  0.11771752    -0.07760
C249        C  0.30445466  0.21211751  0.10095512     0.05770
C250        C  0.28266475  0.21566245  0.12278997    -0.02790
Br251      Br  0.24205138  0.19882636  0.10333887    -0.02480
H252        H  0.27362365  0.23514920  0.17735860     0.09680
H253        H  0.35110623  0.22481209  0.10196624     0.07700
Br254      Br  0.38186734  0.26302811  0.17656982    -0.02910
C255        C  0.38980798  0.00587915  0.22445396    -0.09540
C256        C  0.41933158  0.01305138  0.21587667     0.06650
C257        C  0.43752409  0.04172210  0.19855328    -0.03310
C258        C  0.43204413  0.06447544  0.20892893    -0.07760
C259        C  0.40558524  0.05775535  0.23009893     0.05770
C260        C  0.38327095  0.02764634  0.23429995    -0.02790
Br261      Br  0.34235432  0.01468452  0.24763575    -0.02480
H262        H  0.37064646  0.48400579  0.21942346     0.09680
H263        H  0.44679246  0.08659473  0.19684821     0.07700
Br264      Br  0.45837261  0.04632957  0.14625082    -0.02910
C265        C  0.34788873  0.08758850  0.13624008    -0.09540
C266        C  0.36452144  0.11171620  0.16503539     0.06650
C267        C  0.36812034  0.13939973  0.15672842    -0.03310
C268        C  0.35433126  0.14220031  0.12090820    -0.07760
C269        C  0.33702520  0.11783570  0.09255849     0.05770
C270        C  0.33444335  0.09042445  0.10012961    -0.02790
Br271      Br  0.31431593  0.05633889  0.06177227    -0.02480
H272        H  0.34503724  0.06617586  0.14210379     0.09680
H273        H  0.35695572  0.16356616  0.11549918     0.07700
Br274      Br  0.39259037  0.17436832  0.19202414    -0.02910
C275        C  0.36127530  0.13834960  0.37712973    -0.09540
C276        C  0.33589292  0.11376333  0.39545109     0.06650
C277        C  0.32577364  0.08487154  0.37771216    -0.03310
C278        C  0.34006980  0.08157352  0.34181813    -0.07760
C279        C  0.36438724  0.10636621  0.32283123     0.05770
C280        C  0.37537302  0.13484294  0.34132757    -0.02790
Br281      Br  0.40971932  0.16964593  0.31868008    -0.02480
H282        H  0.37003423  0.16067856  0.39008602     0.09680
H283        H  0.33149030  0.05954709  0.32770450     0.07700
Br284      Br  0.29260082  0.04863409  0.39961123    -0.02910
C285        C  0.39768595  0.08051427  0.73647731     0.02740
C286        C  0.38969103  0.08616772  0.77705577    -0.13410
C287        C  0.37565162  0.10249767  0.78117678     0.00240
C288        C  0.36893019  0.11233000  0.74442155    -0.11940
C289        C  0.37676895  0.10671483  0.70388929     0.02730
C290        C  0.39198575  0.09162013  0.70038090    -0.11360
H291        H  0.39305635  0.07668438  0.80496526     0.08330
H292        H  0.35593517  0.12274719  0.74730356     0.05860
H293        H  0.39700213  0.08614953  0.66904214     0.05700
C294        C  0.34677077  0.31296283  0.75355250     0.02740
C295        C  0.34434282  0.29552109  0.71719299    -0.13410
C296        C  0.32635653  0.26448360  0.71740914     0.00240
C297        C  0.31417298  0.25031305  0.75566475    -0.11940
C298        C  0.31981040  0.26720285  0.79344032     0.02730
C299        C  0.33464155  0.29833990  0.79218332    -0.11360
H300        H  0.35621254  0.30584419  0.68825680     0.08330
H301        H  0.30188165  0.22619473  0.75646244     0.05860
H302        H  0.33746203  0.31084730  0.82156066     0.05700
Fe303      Fe  0.24950049  0.14679022  0.49921817     1.65780
Fe304      Fe  0.26695207  0.09294315  0.99470288     1.73250
Fe305      Fe  0.32283520  0.16698595  0.99529763     1.54410
O306        O  0.31730563  0.19000357  0.94856225    -0.82060
O307        O  0.29782201  0.09963113  0.54103222    -0.80370
O308        O  0.27113433  0.18051900  0.95626624    -0.84570
O309        O  0.27032415  0.17573452  0.55023104    -0.79430
O310        O  0.33291178  0.14574675  0.94767259    -0.81200
O311        O  0.23605926  0.08152806  0.54316439    -0.83940
C312        C  0.29734517  0.19242708  0.56227632     0.96820
C313        C  0.29657370  0.19423939  0.93858976     1.04260
O314        O  0.27974877  0.13551036  0.99628746    -1.12930
O315        O  0.23448868  0.08168306  0.94835883    -0.75360
O316        O  0.22578063  0.11867696  0.94867267    -0.78850
O317        O  0.31872958  0.19237623  0.54306239    -0.79530
C318        C  0.22187541  0.09440373  0.93330364     0.95730
O319        O  0.22322607  0.11514909  0.54265624    -0.77490
O320        O  0.29611939  0.09820232  0.94599350    -0.82690
C321        C  0.32192815  0.12185807  0.55617813     0.98350
C322        C  0.32073721  0.11942553  0.93195267     1.04270
O323        O  0.33341347  0.14788918  0.54219881    -0.78330
C324        C  0.22048211  0.09181107  0.55707124     1.02570
C325        C  0.09956620  0.52424916  0.74588452     0.02740
C326        C  0.11525374  0.02883058  0.78426373    -0.13410
C327        C  0.14654997  0.04221433  0.78409723     0.00240
C328        C  0.16181271  0.04858567  0.74514813    -0.11940
C329        C  0.14644350  0.04264292  0.70649906     0.02730
C330        C  0.11554827  0.03117774  0.70721484    -0.11360
H331        H  0.10350117  0.02324016  0.81435441     0.08020
H332        H  0.18605236  0.05972062  0.74511945     0.05860
H333        H  0.10411062  0.02838707  0.67732383     0.05700
Fe334      Fe  0.13749525  0.30139418  0.50858788     1.65780
Fe335      Fe  0.11658565  0.35255410  0.00658345     1.73250
Fe336      Fe  0.06289515  0.27755281  0.00692925     1.54420
O337        O  0.06925827  0.25420820  0.95886296    -0.82060
O338        O  0.08620187  0.34591193  0.55401341    -0.80370
O339        O  0.11670059  0.26690792  0.96336805    -0.84570
O340        O  0.11815595  0.27246881  0.55829856    -0.79430
O341        O  0.05024441  0.29590732  0.96027410    -0.81200
O342        O  0.14840239  0.36733687  0.55432433    -0.83940
C343        C  0.09152186  0.25544599  0.57122400     0.96820
C344        C  0.09086743  0.25167205  0.94636255     1.04260
O345        O  0.10565075  0.31052667  0.00736923    -1.12930
O346        O  0.14853513  0.36377982  0.95924506    -0.75360
O347        O  0.16026085  0.32900992  0.95888697    -0.78850
O348        O  0.06933627  0.25456366  0.55377190    -0.79530
C349        C  0.16269659  0.35219811  0.94398284     0.95730
O350        O  0.16282828  0.33482323  0.55365828    -0.77490
O351        O  0.08636905  0.34394367  0.95877884    -0.82690
C352        C  0.06314055  0.32347969  0.56953083     0.98350
C353        C  0.06206017  0.32159561  0.94474254     1.04270
O354        O  0.05181784  0.29707933  0.55498190    -0.78330
C355        C  0.16460944  0.35836906  0.56839324     1.02570
C356        C  0.49541589  0.37222588  0.75974180     0.02740
C357        C  0.50449591  0.36436003  0.72184742    -0.13410
C358        C  0.51305839  0.34349722  0.72137648     0.00240
C359        C  0.01462716  0.33187147  0.75995544    -0.11940
C360        C  0.50950263  0.34210715  0.79890639     0.02730
C361        C  0.49823162  0.36106934  0.79863226    -0.11360
H362        H  0.50541100  0.37500961  0.69243742     0.08330
H363        H  0.02223778  0.31643597  0.76007730     0.05860
H364        H  0.49262694  0.36767907  0.82846925     0.05700
C365        C  0.28615355  0.42063438  0.76157510     0.02740
C366        C  0.27286043  0.41900640  0.72175225    -0.13410
C367        C  0.24166824  0.40585554  0.71753456     0.00240
C368        C  0.22426050  0.39683841  0.75490302    -0.11940
C369        C  0.23745625  0.40003487  0.79502740     0.02730
C370        C  0.26841168  0.41196065  0.79825336    -0.11360
H371        H  0.28694228  0.42714951  0.69384080     0.08330
H372        H  0.20011802  0.38620035  0.75278262     0.05860
H373        H  0.27824463  0.41271704  0.82881342     0.05700
C374        C  0.04206149  0.13172659  0.75190437     0.02740
C375        C  0.05252325  0.14702136  0.79145359    -0.13410
C376        C  0.06780123  0.17820629  0.79403564     0.00240
C377        C  0.07444139  0.19441348  0.75679931    -0.11940
C378        C  0.06513629  0.17976007  0.71685626     0.02730
C379        C  0.04903137  0.14843911  0.71463015    -0.11360
H380        H  0.04808046  0.13478801  0.82044882     0.08330
H381        H  0.08576949  0.21849004  0.75912984     0.05860
H382        H  0.04140876  0.13709776  0.68381049     0.05700
C383        C  0.43075883  0.49191076  0.72486531     0.01900
C384        C  0.41073960  0.46119050  0.73634714     0.01900
C385        C  0.42131942  0.44144145  0.73858674     0.01900
C386        C  0.45207032  0.45199210  0.73416331     0.01900
C387        C  0.47290739  0.48297413  0.73009404     0.01900
C388        C  0.46264259  0.00312669  0.72655342     0.01900
C389        C  0.48066793  0.05027720  0.76903933    -0.09540
C390        C  0.48502298  0.03594213  0.73381135     0.06650
C391        C  0.01020609  0.05321080  0.70734794    -0.03310
C392        C  0.02928107  0.08379113  0.71576602    -0.07760
C393        C  0.02343632  0.09846975  0.74884668     0.05770
C394        C  0.99865749  0.08117871  0.77578175    -0.02790
Br395      Br  0.48523426  0.09801966  0.81883287    -0.02480
H396        H  0.46179724  0.03748733  0.78997556     0.09680
H397        H  0.04819452  0.09650065  0.69486160     0.07700
Br398      Br  0.01814544  0.03832379  0.65563547    -0.02910
C399        C  0.33951845  0.44845567  0.79175553    -0.09540
C400        C  0.31757848  0.42773898  0.76268617     0.06650
C401        C  0.32628942  0.41441701  0.73165098    -0.03310
C402        C  0.35614993  0.42802375  0.72050694    -0.07760
C403        C  0.37868569  0.44864773  0.74846727     0.05770
C404        C  0.36990685  0.45732626  0.78642484    -0.02790
Br405      Br  0.39896241  0.98451362  0.82760617    -0.02480
H406        H  0.33325935  0.45799898  0.81774111     0.09680
H407        H  0.36143821  0.42198780  0.69017265     0.07700
Br408      Br  0.29962876  0.37371503  0.71435585    -0.02910
C409        C  0.47993092  0.43489044  0.77726872    -0.09540
C410        C  0.46269501  0.43094364  0.74079487     0.06650
C411        C  0.45567367  0.40693441  0.71211034    -0.03310
C412        C  0.46444619  0.38707438  0.72148407    -0.07760
C413        C  0.48306217  0.39187362  0.75660915     0.05770
C414        C  0.49123186  0.41660581  0.78437128    -0.02790
Br415      Br  0.02032020  0.42915512  0.82931394    -0.02480
H416        H  0.98562271  0.45313347  0.79966134     0.09680
H417        H  0.45783834  0.36837815  0.69953484     0.07700
Br418      Br  0.43756839  0.40130885  0.65693129    -0.02910
C419        C  0.05595698  0.21244382  0.61590127    -0.09540
C420        C  0.08570614  0.23563102  0.60787740     0.06650
C421        C  0.10864679  0.23942354  0.63575238    -0.03310
C422        C  0.10142420  0.22044858  0.67005637    -0.07760
C423        C  0.07171671  0.19760685  0.67800752     0.05770
C424        C  0.04883591  0.19373558  0.65049274    -0.02790
Br425      Br  0.00715656  0.16494805  0.66046397    -0.02480
H426        H  0.03783668  0.20900202  0.59551804     0.09680
H427        H  0.11918427  0.22387649  0.69126090     0.07700
Br428      Br  0.15015317  0.27076152  0.63130031    -0.02910
C429        C  0.05678995  0.21570854  0.89014006    -0.09540
C430        C  0.08533082  0.23058659  0.90975602     0.06650
C431        C  0.10755675  0.22574663  0.89232263    -0.03310
C432        C  0.10117193  0.20763731  0.85542060    -0.07760
C433        C  0.07301344  0.19395616  0.83559594     0.05770
C434        C  0.05064101  0.19776619  0.85351011    -0.02790
Br435      Br  0.01177122  0.18033841  0.82744184    -0.02480
H436        H  0.03916052  0.21863547  0.90245193     0.09680
H437        H  0.11847595  0.20475827  0.84153584     0.07700
Br438      Br  0.14720495  0.24312480  0.91583895    -0.02910
C439        C  0.18216267  0.34597981  0.87460962    -0.09540
C440        C  0.18214412  0.36534796  0.90629274     0.06650
C441        C  0.20079974  0.39643132  0.90119380    -0.03310
C442        C  0.21880157  0.40744362  0.86481697    -0.07760
C443        C  0.21832468  0.38794563  0.83305896     0.05770
C444        C  0.19991522  0.35700032  0.83822923    -0.02790
Br445      Br  0.19903862  0.32893529  0.79705000    -0.02480
H446        H  0.16808828  0.32207460  0.87798180     0.09680
H447        H  0.23324424  0.43129512  0.86128237     0.07700
Br448      Br  0.20408307  0.42482630  0.94384086    -0.02910
C449        C  0.21179975  0.37306539  0.60568979    -0.09540
C450        C  0.18675601  0.37565005  0.60315627     0.06650
C451        C  0.18357551  0.39361893  0.63448955    -0.03310
C452        C  0.20266502  0.40448501  0.67035107    -0.07760
C453        C  0.22626414  0.39944364  0.67486999     0.05770
C454        C  0.23185675  0.38539105  0.63989921    -0.02790
Br455      Br  0.26541431  0.38098141  0.63414886    -0.02480
H456        H  0.21583886  0.36106873  0.58060437     0.09680
H457        H  0.19871370  0.41660192  0.69531159     0.07700
Br458      Br  0.15386333  0.40410191  0.63117577    -0.02910
C459        C  0.05162819  0.34435826  0.83676727    -0.09540
C460        C  0.02173020  0.33711270  0.83812696     0.06650
C461        C  0.00475506  0.32418946  0.87517614    -0.03310
C462        C  0.01786060  0.31863272  0.90965739    -0.07760
C463        C  0.04779279  0.32596841  0.90780086     0.05770
C464        C  0.06452738  0.33867350  0.87069822    -0.02790
Br465      Br  0.10457508  0.34692131  0.86333564    -0.02480
H466        H  0.06506890  0.35421242  0.80858921     0.09680
H467        H  0.00476327  0.30881517  0.93808406     0.07700
Br468      Br  0.96353090  0.31255512  0.87952546    -0.02910
C469        C  0.05170318  0.33796497  0.68380372    -0.09540
C470        C  0.02448935  0.33699629  0.68175092     0.06650
C471        C  0.00936369  0.33030175  0.64208484    -0.03310
C472        C  0.02240708  0.32630429  0.60538376    -0.07760
C473        C  0.04986120  0.32803453  0.60784386     0.05770
C474        C  0.06391674  0.33271638  0.64753938    -0.02790
Br475      Br  0.09841453  0.32962677  0.65427174    -0.02480
H476        H  0.06357991  0.34270432  0.71384297     0.09680
H477        H  0.01093329  0.32144443  0.57495601     0.07700
Br478      Br  0.47009623  0.32413936  0.63632386    -0.02910
C479        C  0.02216450  0.01218505  0.76915587    -0.09540
C480        C  0.00566088  0.49413300  0.73380687     0.06650
C481        C  0.02014183  0.48540928  0.70405739    -0.03310
C482        C  0.04960134  0.49336784  0.71107627    -0.07760
C483        C  0.06679747  0.51285995  0.74489332     0.05770
C484        C  0.05274909  0.02282106  0.77377880    -0.02790
Br485      Br  0.07396201  0.05338047  0.81704208    -0.02480
H486        H  0.01142647  0.01892882  0.79256183     0.09680
H487        H  0.05956538  0.48530662  0.68838074     0.07700
Br488      Br  0.50281210  0.46617312  0.65022151    -0.02910
C489        C  0.20263484  0.05749629  0.61826112    -0.09540
C490        C  0.19904797  0.07668119  0.59244940     0.06650
C491        C  0.17576067  0.08183183  0.60232371    -0.03310
C492        C  0.15860828  0.06998123  0.63897273    -0.07760
C493        C  0.16331894  0.05217478  0.66589858     0.05770
C494        C  0.18486293  0.04504863  0.65438429    -0.02790
Br495      Br  0.19023968  0.01760823  0.68575286    -0.02480
H496        H  0.21970480  0.05249383  0.61084609     0.09680
H497        H  0.14182636  0.07529374  0.64693188     0.07700
Br498      Br  0.16502996  0.10390450  0.56710062    -0.02910
C499        C  0.18057360  0.05007315  0.89392080    -0.09540
C500        C  0.20216475  0.08081417  0.89568561     0.06650
C501        C  0.20477277  0.09834587  0.86106582    -0.03310
C502        C  0.18586136  0.08519868  0.82590105    -0.07760
C503        C  0.16437550  0.05453145  0.82380988     0.05770
C504        C  0.16157707  0.03684649  0.85834785    -0.02790
Br505      Br  0.13339931  0.99461631  0.85759059    -0.02480
H506        H  0.17844715  0.03635124  0.92030063     0.09680
H507        H  0.18830811  0.09902714  0.79946905     0.07700
Br508      Br  0.23535050  0.13987358  0.85799747    -0.02910
C509        C  0.38309779  0.39084420  0.71035301    -0.09540
C510        C  0.39989751  0.40889625  0.74520163     0.06650
C511        C  0.39743227  0.39550127  0.78425809    -0.03310
C512        C  0.38021743  0.36436235  0.78663677    -0.07760
C513        C  0.36333548  0.34614505  0.75125113     0.05770
C514        C  0.36359954  0.36030103  0.71351926    -0.02790
Br515      Br  0.33698397  0.34075501  0.66542662    -0.02480
H516        H  0.38540404  0.40063460  0.67970501     0.09680
H517        H  0.38059448  0.35460497  0.81621363     0.07700
Br518      Br  0.41732118  0.41879086  0.83476858    -0.02910
C519        C  0.28766724  0.24057380  0.85541001    -0.09540
C520        C  0.31498657  0.25232470  0.83404570     0.06650
C521        C  0.33670440  0.24694248  0.84889254    -0.03310
C522        C  0.33042237  0.22877020  0.88353071    -0.07760
C523        C  0.30253059  0.21557688  0.90436711     0.05770
C524        C  0.28130058  0.22255829  0.89068794    -0.02790
Br525      Br  0.24316150  0.20856784  0.91749839    -0.02480
H526        H  0.27097587  0.24485264  0.84395801     0.09680
H527        H  0.34738997  0.22442708  0.89336119     0.07700
Br528      Br  0.37490332  0.26289744  0.82138333    -0.02910
C529        C  0.29043232  0.23270246  0.66073809    -0.09540
C530        C  0.31956780  0.24685051  0.67736182     0.06650
C531        C  0.34152847  0.24428798  0.65538256    -0.03310
C532        C  0.33389121  0.22697501  0.61771669    -0.07760
C533        C  0.30445719  0.21211557  0.60095199     0.05770
C534        C  0.28266843  0.21566287  0.62278566    -0.02790
Br535      Br  0.24205696  0.19883291  0.60333025    -0.02480
H536        H  0.27362845  0.23515021  0.67735455     0.09680
H537        H  0.35110690  0.22480417  0.60196631     0.07700
Br538      Br  0.38186806  0.26301620  0.67657331    -0.02910
C539        C  0.38981167  0.00588687  0.72449457    -0.09540
C540        C  0.41933005  0.01305251  0.71589063     0.06650
C541        C  0.43751776  0.04171770  0.69854802    -0.03310
C542        C  0.43204254  0.06447538  0.70891687    -0.07760
C543        C  0.40559270  0.05776475  0.73010635     0.05770
C544        C  0.38328010  0.02765825  0.73433576    -0.02790
Br545      Br  0.34236840  0.01470172  0.74769908    -0.02480
H546        H  0.37063913  0.48402745  0.71958419     0.09680
H547        H  0.44678756  0.08659021  0.69681984     0.07700
Br548      Br  0.45836055  0.04631194  0.64624396    -0.02910
C549        C  0.34789422  0.08759356  0.63624207    -0.09540
C550        C  0.36452741  0.11172265  0.66503517     0.06650
C551        C  0.36812480  0.13940527  0.65672599    -0.03310
C552        C  0.35433396  0.14220362  0.62090595    -0.07760
C553        C  0.33702748  0.11783766  0.59255843     0.05770
C554        C  0.33444694  0.09042728  0.60013179    -0.02790
Br555      Br  0.31431877  0.05634002  0.56177763    -0.02480
H556        H  0.34504374  0.06618156  0.64210746     0.09680
H557        H  0.35695746  0.16356887  0.61549530     0.07700
Br558      Br  0.39259504  0.17437564  0.69201843    -0.02910
C559        C  0.36127828  0.13835844  0.87713066    -0.09540
C560        C  0.33589657  0.11377072  0.89545093     0.06650
C561        C  0.32577960  0.08487980  0.87771064    -0.03310
C562        C  0.34007761  0.08158388  0.84181708    -0.07760
C563        C  0.36439465  0.10637787  0.82283163     0.05770
C564        C  0.37537775  0.13485388  0.84132877    -0.02790
Br565      Br  0.40972283  0.16965868  0.81868283    -0.02480
H566        H  0.37003538  0.16068689  0.89008770     0.09680
H567        H  0.33149996  0.05955795  0.82770280     0.07700
Br568      Br  0.29260769  0.04864082  0.89960753    -0.02910
C569        C  0.39765463  0.58048122  0.23647004     0.02740
C570        C  0.38965382  0.58612571  0.27704914    -0.13410
C571        C  0.37562041  0.60246129  0.28117465     0.00240
C572        C  0.36890342  0.61230033  0.24442227    -0.11940
C573        C  0.37674398  0.60668918  0.20388901     0.02730
C574        C  0.39195957  0.59159373  0.20037716    -0.11360
H575        H  0.39301596  0.57663737  0.30495539     0.08330
H576        H  0.35591186  0.62272107  0.24730716     0.05860
H577        H  0.39698104  0.58612937  0.16903755     0.05700
C578        C  0.34677023  0.81296485  0.25355593     0.02740
C579        C  0.34434142  0.79552323  0.21719567    -0.13410
C580        C  0.32635541  0.76448567  0.21741149     0.00240
C581        C  0.31417274  0.75031492  0.25566722    -0.11940
C582        C  0.31981096  0.76720439  0.29344331     0.02730
C583        C  0.33464212  0.79834156  0.29218697    -0.11360
H584        H  0.35621045  0.80584647  0.18825915     0.08330
H585        H  0.30188157  0.72619658  0.25646452     0.05860
H586        H  0.33746325  0.81084867  0.32156481     0.05700
Fe587      Fe  0.24949956  0.64679240  0.99921792     1.65780
Fe588      Fe  0.26694815  0.59293906  0.49470975     1.73250
Fe589      Fe  0.32283345  0.66698050  0.49529216     1.54410
O590        O  0.31730307  0.68999430  0.44855175    -0.82060
O591        O  0.29781825  0.59962966  0.04102563    -0.80370
O592        O  0.27113628  0.68051931  0.45626996    -0.84570
O593        O  0.27032357  0.67573765  0.05023020    -0.79430
O594        O  0.33290688  0.64573551  0.44767131    -0.81200
O595        O  0.23605642  0.58152785  0.04315725    -0.83940
C596        C  0.29734404  0.69242807  0.06227896     0.96820
C597        C  0.29657336  0.69423509  0.43858649     1.04260
O598        O  0.27974686  0.63550653  0.49628819    -1.12930
O599        O  0.23448234  0.58167798  0.44836840    -0.75360
O600        O  0.22578179  0.61867692  0.44867129    -0.78850
O601        O  0.31872836  0.69237549  0.04306788    -0.79530
C602        C  0.22187318  0.59440114  0.43330728     0.95730
O603        O  0.22322640  0.61515164  0.04265735    -0.77490
O604        O  0.29611072  0.59819270  0.44599871    -0.82690
C605        C  0.32192380  0.62185497  0.05617516     0.98350
C606        C  0.32072897  0.61941292  0.43195517     1.04270
O607        O  0.33341066  0.64788739  0.04220006    -0.78330
C608        C  0.22048118  0.59181202  0.05706842     1.02570
C609        C  0.09956895  0.02425164  0.24588352     0.02740
C610        C  0.11525529  0.52882575  0.28426296    -0.13410
C611        C  0.14655173  0.54221106  0.28409645     0.00240
C612        C  0.16181453  0.54858379  0.24514719    -0.11940
C613        C  0.14644512  0.54264103  0.20649820     0.02730
C614        C  0.11554957  0.53117425  0.20721428    -0.11360
H615        H  0.10350267  0.52323430  0.31435357     0.08020
H616        H  0.18605427  0.55971973  0.24511833     0.05860
H617        H  0.10411165  0.52838348  0.17732349     0.05700
Fe618      Fe  0.13749681  0.80139051  0.00858948     1.65780
Fe619      Fe  0.11657784  0.85255034  0.50658092     1.73250
Fe620      Fe  0.06289005  0.77754807  0.50692519     1.54420
O621        O  0.06925509  0.75420565  0.45885732    -0.82060
O622        O  0.08620695  0.84591209  0.05401256    -0.80370
O623        O  0.11669733  0.76690580  0.46336722    -0.84570
O624        O  0.11815687  0.77246603  0.05830035    -0.79430
O625        O  0.05023805  0.79590251  0.46027134    -0.81200
O626        O  0.14840732  0.86733509  0.05432266    -0.83940
C627        C  0.09152276  0.75544347  0.07122561     0.96820
C628        C  0.09086495  0.75166983  0.44635951     1.04260
O629        O  0.10564497  0.81052351  0.50736615    -1.12930
O630        O  0.14853021  0.86377894  0.45924524    -0.75360
O631        O  0.16025537  0.82900861  0.45888365    -0.78850
O632        O  0.06933733  0.75456149  0.05377335    -0.79530
C633        C  0.16269196  0.85219779  0.44398179     0.95730
O634        O  0.16283088  0.83481975  0.05365957    -0.77490
O635        O  0.08636290  0.84393875  0.45877382    -0.82690
C636        C  0.06314503  0.82348049  0.06953019     0.98350
C637        C  0.06205396  0.82159043  0.44473836     1.04270
O638        O  0.05182151  0.79707977  0.05498219    -0.78330
C639        C  0.16461324  0.85836643  0.06839328     1.02570
C640        C  0.49541211  0.87222264  0.25973907     0.02740
C641        C  0.50449293  0.86435793  0.22184446    -0.13410
C642        C  0.51305480  0.84349467  0.22137248     0.00240
C643        C  0.01462495  0.83186898  0.25994966    -0.11940
C644        C  0.50949701  0.84210201  0.29890198     0.02730
C645        C  0.49822657  0.86106464  0.29862883    -0.11360
H646        H  0.50540917  0.87500879  0.19243523     0.08330
H647        H  0.02223568  0.81643355  0.26007108     0.05860
H648        H  0.49262154  0.86767373  0.32846610     0.05700
C649        C  0.28615654  0.92064407  0.26158064     0.02740
C650        C  0.27286238  0.91901055  0.22175627    -0.13410
C651        C  0.24166987  0.90585758  0.21753857     0.00240
C652        C  0.22426231  0.89684223  0.25490709    -0.11940
C653        C  0.23745839  0.90004195  0.29503233     0.02730
C654        C  0.26841462  0.91197142  0.29825912    -0.11360
H655        H  0.28694350  0.92715028  0.19384351     0.08330
H656        H  0.20011965  0.88620239  0.25278590     0.05860
H657        H  0.27824829  0.91273080  0.32881994     0.05700
C658        C  0.04207219  0.63172380  0.25190473     0.02740
C659        C  0.05253342  0.64701944  0.29145350    -0.13410
C660        C  0.06780707  0.67820408  0.29403502     0.00240
C661        C  0.07444457  0.69441051  0.25679846    -0.11940
C662        C  0.06514085  0.67975653  0.21685564     0.02730
C663        C  0.04903929  0.64843560  0.21463008    -0.11360
H664        H  0.04809300  0.63478684  0.32044895     0.08330
H665        H  0.08576969  0.71848684  0.25912861     0.05860
H666        H  0.04141709  0.63709371  0.18381069     0.05700
C667        C  0.43076338  0.99191331  0.22486075     0.01900
C668        C  0.41074239  0.96119405  0.23634666     0.01900
C669        C  0.42132067  0.94144355  0.23858718     0.01900
C670        C  0.45207135  0.95199257  0.23416315     0.01900
C671        C  0.47291005  0.98297426  0.23009422     0.01900
C672        C  0.46264728  0.50312534  0.22654340     0.01900
C673        C  0.48067878  0.55027303  0.26903889    -0.09540
C674        C  0.48503116  0.53593907  0.23380714     0.06650
C675        C  0.01021645  0.55320834  0.20734643    -0.03310
C676        C  0.02929298  0.58378833  0.21576655    -0.07760
C677        C  0.02344872  0.59846681  0.24884830     0.05770
C678        C  0.99867046  0.58117546  0.27578433    -0.02790
Br679      Br  0.48524882  0.59801413  0.31883968    -0.02480
H680        H  0.46180775  0.53748315  0.28997424     0.09680
H681        H  0.04820610  0.59649793  0.19486166     0.07700
Br682      Br  0.01815078  0.53832073  0.15563025    -0.02910
C683        C  0.33952480  0.94847668  0.29175038    -0.09540
C684        C  0.31758196  0.92774998  0.26269286     0.06650
C685        C  0.32629040  0.91441923  0.23166860    -0.03310
C686        C  0.35614995  0.92802266  0.22052099    -0.07760
C687        C  0.37868886  0.94865478  0.24847095     0.05770
C688        C  0.36991304  0.95734629  0.28641907    -0.02790
Br689      Br  0.39898300  0.48458598  0.32755936    -0.02480
H690        H  0.33326771  0.95802756  0.31772793     0.09680
H691        H  0.36143449  0.92198034  0.19018928     0.07700
Br692      Br  0.29962746  0.87371407  0.21439024    -0.02910
C693        C  0.47992903  0.93488809  0.27726894    -0.09540
C694        C  0.46269430  0.93094283  0.24079446     0.06650
C695        C  0.45567269  0.90693410  0.21210881    -0.03310
C696        C  0.46444400  0.88707308  0.22148193    -0.07760
C697        C  0.48305912  0.89187095  0.25660745     0.05770
C698        C  0.49122891  0.91660253  0.28437092    -0.02790
Br699      Br  0.02032059  0.92915223  0.32931078    -0.02480
H700        H  0.98562515  0.95313327  0.29965968     0.09680
H701        H  0.45783613  0.86837730  0.19953178     0.07700
Br702      Br  0.43756898  0.90131065  0.15692904    -0.02910
C703        C  0.05595878  0.71243949  0.11590145    -0.09540
C704        C  0.08570740  0.73562834  0.10787867     0.06650
C705        C  0.10864847  0.73942191  0.13575375    -0.03310
C706        C  0.10142689  0.72044639  0.17005663    -0.07760
C707        C  0.07172000  0.69760300  0.17800682     0.05770
C708        C  0.04883872  0.69373051  0.15049196    -0.02790
Br709      Br  0.00716007  0.66493992  0.16046187    -0.02480
H710        H  0.03783825  0.70899685  0.09551795     0.09680
H711        H  0.11918728  0.72387529  0.19126132     0.07700
Br712      Br  0.15015414  0.77076225  0.13130378    -0.02910
C713        C  0.05679022  0.71570549  0.39013548    -0.09540
C714        C  0.08533036  0.73058451  0.40975365     0.06650
C715        C  0.10755760  0.72574537  0.39232329    -0.03310
C716        C  0.10117476  0.70763590  0.35542195    -0.07760
C717        C  0.07301703  0.69395384  0.33559494     0.05770
C718        C  0.05064326  0.69776294  0.35350620    -0.02790
Br719      Br  0.01177410  0.68033307  0.32743507    -0.02480
H720        H  0.03915984  0.71863167  0.40244517     0.09680
H721        H  0.11847979  0.70475755  0.34153944     0.07700
Br722      Br  0.14720513  0.74312492  0.41584276    -0.02910
C723        C  0.18216338  0.84598319  0.37461064    -0.09540
C724        C  0.18214131  0.86534971  0.40629336     0.06650
C725        C  0.20079584  0.89643344  0.40119603    -0.03310
C726        C  0.21879972  0.90744754  0.36482115    -0.07760
C727        C  0.21832617  0.88795108  0.33306340     0.05770
C728        C  0.19991802  0.85700544  0.33823233    -0.02790
Br729      Br  0.19904592  0.82894217  0.29705406    -0.02480
H730        H  0.16809014  0.82207777  0.37798146     0.09680
H731        H  0.23324116  0.93129928  0.36128771     0.07700
Br732      Br  0.20407494  0.92482676  0.44384269    -0.02910
C733        C  0.21179995  0.87305765  0.10569788    -0.09540
C734        C  0.18675929  0.87564708  0.10315757     0.06650
C735        C  0.18358069  0.89361992  0.13448627    -0.03310
C736        C  0.20266916  0.90448660  0.17034901    -0.07760
C737        C  0.22626544  0.89944178  0.17487381     0.05770
C738        C  0.23185563  0.88538316  0.13990899    -0.02790
Br739      Br  0.26540735  0.88096309  0.13417254    -0.02480
H740        H  0.21583742  0.86105691  0.08061707     0.09680
H741        H  0.19871939  0.91660698  0.19530581     0.07700
Br742      Br  0.15387248  0.90410777  0.13116484    -0.02910
C743        C  0.05162372  0.84435340  0.33676269    -0.09540
C744        C  0.02172580  0.83710803  0.33812141     0.06650
C745        C  0.00474988  0.82418430  0.37516985    -0.03310
C746        C  0.01785470  0.81862705  0.40965147    -0.07760
C747        C  0.04778687  0.82596266  0.40779591     0.05770
C748        C  0.06452216  0.83866805  0.37069388    -0.02790
Br749      Br  0.10456997  0.84691588  0.36333258    -0.02480
H750        H  0.06506504  0.85420801  0.30858525     0.09680
H751        H  0.00475691  0.80880937  0.43807774     0.07700
Br752      Br  0.96352577  0.81255028  0.37951776    -0.02910
C753        C  0.05170571  0.83796815  0.18380115    -0.09540
C754        C  0.02449074  0.83699706  0.18174659     0.06650
C755        C  0.00936576  0.83030156  0.14207992    -0.03310
C756        C  0.02241033  0.82630436  0.10538003    -0.07760
C757        C  0.04986534  0.82803648  0.10784186     0.05770
C758        C  0.06392087  0.83272045  0.14753791    -0.02790
Br759      Br  0.09842073  0.82963464  0.15427280    -0.02480
H760        H  0.06358191  0.84270847  0.21384109     0.09680
H761        H  0.01093677  0.82144319  0.07495187     0.07700
Br762      Br  0.47009617  0.82414124  0.13631681    -0.02910
C763        C  0.02216473  0.51217709  0.26915612    -0.09540
C764        C  0.00566250  0.99413453  0.23380754     0.06650
C765        C  0.02014365  0.98541118  0.20405765    -0.03310
C766        C  0.04960353  0.99337036  0.21107570    -0.07760
C767        C  0.06679995  0.01286250  0.24489258     0.05770
C768        C  0.05274928  0.52281331  0.27377966    -0.02790
Br769      Br  0.07396117  0.55337185  0.31704444    -0.02480
H770        H  0.01142627  0.51892019  0.29256232     0.09680
H771        H  0.05956750  0.98530933  0.18837976     0.07700
Br772      Br  0.50281475  0.96617258  0.15022218    -0.02910
C773        C  0.20263593  0.55749701  0.11825801    -0.09540
C774        C  0.19904787  0.57668156  0.09244726     0.06650
C775        C  0.17576034  0.58183150  0.10232326    -0.03310
C776        C  0.15860863  0.56998033  0.13897275    -0.07760
C777        C  0.16332036  0.55217411  0.16589758     0.05770
C778        C  0.18486484  0.54504891  0.15438180    -0.02790
Br779      Br  0.19024328  0.51760913  0.18574911    -0.02480
H780        H  0.21970624  0.55249526  0.11084175     0.09680
H781        H  0.14182631  0.57529210  0.14693299     0.07700
Br782      Br  0.16502836  0.60390370  0.06710139    -0.02910
C783        C  0.18057242  0.55007042  0.39392290    -0.09540
C784        C  0.20216363  0.58081143  0.39568799     0.06650
C785        C  0.20477321  0.59834281  0.36106674    -0.03310
C786        C  0.18586298  0.58519539  0.32590085    -0.07760
C787        C  0.16437695  0.55452819  0.32380955     0.05770
C788        C  0.16157726  0.53684351  0.35834865    -0.02790
Br789      Br  0.13339980  0.49461326  0.35759148    -0.02480
H790        H  0.17844487  0.53634864  0.42030354     0.09680
H791        H  0.18831070  0.59902374  0.29946818     0.07700
Br792      Br  0.23535155  0.63987031  0.35799757    -0.02910
C793        C  0.38309964  0.89084578  0.21035428    -0.09540
C794        C  0.39989797  0.90889855  0.24520319     0.06650
C795        C  0.39743155  0.89550411  0.28426059    -0.03310
C796        C  0.38021647  0.86436509  0.28664022    -0.07760
C797        C  0.36333489  0.84614727  0.25125458     0.05770
C798        C  0.36359977  0.86030299  0.21352200    -0.02790
Br799      Br  0.33698176  0.84075768  0.16543154    -0.02480
H800        H  0.38540662  0.90063571  0.17970559     0.09680
H801        H  0.38059295  0.85460817  0.31621781     0.07700
Br802      Br  0.41731972  0.91879473  0.33477069    -0.02910
C803        C  0.28766779  0.74057352  0.35541220    -0.09540
C804        C  0.31498730  0.75232539  0.33404803     0.06650
C805        C  0.33670473  0.74694195  0.34889294    -0.03310
C806        C  0.33042223  0.72876784  0.38352905    -0.07760
C807        C  0.30253032  0.71557368  0.40436526     0.05770
C808        C  0.28130063  0.72255610  0.39068801    -0.02790
Br809      Br  0.24316083  0.70856375  0.41749729    -0.02480
H810        H  0.27097653  0.74485289  0.34396138     0.09680
H811        H  0.34738970  0.72442419  0.39335824     0.07700
Br812      Br  0.37490362  0.76289756  0.32138343    -0.02910
C813        C  0.29043038  0.73270221  0.16074223    -0.09540
C814        C  0.31956658  0.74685254  0.17736401     0.06650
C815        C  0.34152766  0.74429148  0.15538329    -0.03310
C816        C  0.33389027  0.72697803  0.11771786    -0.07760
C817        C  0.30445563  0.71211643  0.10095493     0.05770
C818        C  0.28266627  0.71566196  0.12279030    -0.02790
Br819      Br  0.24205334  0.69882799  0.10333877    -0.02480
H820        H  0.27362603  0.73514849  0.17736000     0.09680
H821        H  0.35110652  0.72480870  0.10196627     0.07700
Br822      Br  0.38186811  0.76302218  0.17657158    -0.02910
C823        C  0.38980364  0.50586817  0.22438373    -0.09540
C824        C  0.41933715  0.51305348  0.21585516     0.06650
C825        C  0.43753776  0.54173491  0.19856826    -0.03310
C826        C  0.43204773  0.56447937  0.20895679    -0.07760
C827        C  0.40557152  0.55774070  0.23009009     0.05770
C828        C  0.38325522  0.52762675  0.23423871    -0.02790
Br829      Br  0.34232901  0.51465338  0.24752316    -0.02480
H830        H  0.37064280  0.98401933  0.21952286     0.09680
H831        H  0.44680146  0.58660703  0.19690638     0.07700
Br832      Br  0.45839694  0.54636838  0.14626832    -0.02910
C833        C  0.34787660  0.58757797  0.13623608    -0.09540
C834        C  0.36450747  0.61170334  0.16503553     0.06650
C835        C  0.36810899  0.63938833  0.15673108    -0.03310
C836        C  0.35432394  0.64219250  0.12090900    -0.07760
C837        C  0.33701955  0.61783007  0.09255525     0.05770
C838        C  0.33443547  0.59041752  0.10012385    -0.02790
Br839      Br  0.31431071  0.55633484  0.06176088    -0.02480
H840        H  0.34502344  0.56616435  0.14209766     0.09680
H841        H  0.35694998  0.66355925  0.11550183     0.07700
Br842      Br  0.39257743  0.67435404  0.19203264    -0.02910
C843        C  0.36126635  0.63833562  0.37712908    -0.09540
C844        C  0.33588385  0.61375191  0.39545420     0.06650
C845        C  0.32576088  0.58485843  0.37771850    -0.03310
C846        C  0.34005311  0.58155644  0.34182298    -0.07760
C847        C  0.36437029  0.60634670  0.32283177     0.05770
C848        C  0.37536036  0.63482496  0.34132569    -0.02790
Br849      Br  0.40970769  0.66962474  0.31867340    -0.02480
H850        H  0.37002811  0.66066558  0.39008324     0.09680
H851        H  0.33147068  0.55952888  0.32771156     0.07700
Br852      Br  0.29258809  0.54862360  0.39962403    -0.02910
C853        C  0.39768705  0.58051466  0.73647671     0.02740
C854        C  0.38969236  0.58616838  0.77705521    -0.13410
C855        C  0.37565318  0.60249856  0.78117619     0.00240
C856        C  0.36893206  0.61233111  0.74442100    -0.11940
C857        C  0.37677079  0.60671589  0.70388882     0.02730
C858        C  0.39198732  0.59162095  0.70038038    -0.11360
H859        H  0.39305728  0.57668473  0.80496468     0.08330
H860        H  0.35593704  0.62274832  0.74730296     0.05860
H861        H  0.39700345  0.58615017  0.66904157     0.05700
C862        C  0.34677490  0.81296494  0.75355069     0.02740
C863        C  0.34434670  0.79552323  0.71719091    -0.13410
C864        C  0.32636026  0.76448568  0.71740683     0.00240
C865        C  0.31417674  0.75031505  0.75566246    -0.11940
C866        C  0.31981424  0.76720470  0.79343824     0.02730
C867        C  0.33464564  0.79834181  0.79218145    -0.11360
H868        H  0.35621633  0.80584636  0.68825469     0.08330
H869        H  0.30188517  0.72619671  0.75645994     0.05860
H870        H  0.33746615  0.81084911  0.82155891     0.05700
Fe871      Fe  0.24949945  0.64678930  0.49922029     1.65780
Fe872      Fe  0.26694998  0.59294300  0.99469804     1.73250
Fe873      Fe  0.32283465  0.66698516  0.99529616     1.54410
O874        O  0.31730617  0.69000394  0.94856119    -0.82060
O875        O  0.29782015  0.59962952  0.54103545    -0.80370
O876        O  0.27113498  0.68052012  0.95626413    -0.84570
O877        O  0.27032360  0.67573218  0.55023423    -0.79430
O878        O  0.33291105  0.64574597  0.94767101    -0.81200
O879        O  0.23605839  0.58152857  0.54317144    -0.83940
C880        C  0.29734531  0.69242636  0.56227580     0.96820
C881        C  0.29657461  0.69424023  0.93858813     1.04260
O882        O  0.27974783  0.63551047  0.99628463    -1.12930
O883        O  0.23448689  0.58168436  0.94835504    -0.75360
O884        O  0.22577926  0.61867853  0.94867130    -0.78850
O885        O  0.31872925  0.69237613  0.54305896    -0.79530
C886        C  0.22187345  0.59440525  0.93330154     0.95730
O887        O  0.22322287  0.61514757  0.54265670    -0.77490
O888        O  0.29611708  0.59820217  0.94598826    -0.82690
C889        C  0.32192657  0.62185676  0.55618022     0.98350
C890        C  0.32073585  0.61942516  0.93194941     1.04270
O891        O  0.33341158  0.64788762  0.54220015    -0.78330
C892        C  0.22048002  0.59181085  0.55707497     1.02570
C893        C  0.09956938  0.02425127  0.74588381     0.02740
C894        C  0.11525033  0.52882871  0.78426462    -0.13410
C895        C  0.14654656  0.54221308  0.78409835     0.00240
C896        C  0.16180952  0.54858449  0.74514956    -0.11940
C897        C  0.14644040  0.54264145  0.70650047     0.02730
C898        C  0.11554518  0.53117580  0.70721575    -0.11360
H899        H  0.10349763  0.52323826  0.81435519     0.08020
H900        H  0.18604923  0.55971992  0.74512113     0.05860
H901        H  0.10410766  0.52838506  0.67732458     0.05700
Fe902      Fe  0.13749612  0.80139242  0.50858877     1.65780
Fe903      Fe  0.11658036  0.85254984  0.00658061     1.73250
Fe904      Fe  0.06289106  0.77754807  0.00692866     1.54420
O905        O  0.06925451  0.75420427  0.95886176    -0.82060
O906        O  0.08620324  0.84591074  0.55401194    -0.80370
O907        O  0.11669692  0.76690427  0.96336739    -0.84570
O908        O  0.11815638  0.77246820  0.55830010    -0.79430
O909        O  0.05023909  0.79590233  0.96027392    -0.81200
O910        O  0.14840392  0.86733564  0.55432426    -0.83940
C911        C  0.09152190  0.75544457  0.57122332     0.96820
C912        C  0.09086383  0.75166832  0.94636169     1.04260
O913        O  0.10564636  0.81052269  0.00736752    -1.12930
O914        O  0.14853153  0.86377680  0.95924373    -0.75360
O915        O  0.16025646  0.82900638  0.95888441    -0.78850
O916        O  0.06933658  0.75456149  0.55376889    -0.79530
C917        C  0.16269295  0.85219510  0.94398112     0.95730
O918        O  0.16282954  0.83482190  0.55365838    -0.77490
O919        O  0.08636469  0.84393822  0.95877447    -0.82690
C920        C  0.06314163  0.82347844  0.56952886     0.98350
C921        C  0.06205527  0.82159004  0.94473994     1.04270
O922        O  0.05181894  0.79707807  0.55497971    -0.78330
C923        C  0.16461083  0.85836774  0.56839341     1.02570
C924        C  0.49541460  0.87222442  0.75973642     0.02740
C925        C  0.50449515  0.86435923  0.72184196    -0.13410
C926        C  0.51305661  0.84349565  0.72137037     0.00240
C927        C  0.01462536  0.83186926  0.75995154    -0.11940
C928        C  0.50949795  0.84210263  0.79889987     0.02730
C929        C  0.49822832  0.86106599  0.79862634    -0.11360
H930        H  0.50541162  0.87501000  0.69243253     0.08330
H931        H  0.02223552  0.81643339  0.76007304     0.05860
H932        H  0.49262330  0.86767527  0.82846344     0.05700
C933        C  0.28615517  0.92063420  0.76157676     0.02740
C934        C  0.27286153  0.91900486  0.72175366    -0.13410
C935        C  0.24166922  0.90585367  0.71753621     0.00240
C936        C  0.22426169  0.89683699  0.75490482    -0.11940
C937        C  0.23745755  0.90003403  0.79502934     0.02730
C938        C  0.26841326  0.91196062  0.79825525    -0.11360
H939        H  0.28694306  0.92714728  0.69384178     0.08330
H940        H  0.20011918  0.88619869  0.75278439     0.05860
H941        H  0.27824644  0.91271779  0.82881544     0.05700
C942        C  0.04205934  0.63172459  0.75190258     0.02740
C943        C  0.05252111  0.64701903  0.79145193    -0.13410
C944        C  0.06779918  0.67820391  0.79403436     0.00240
C945        C  0.07443948  0.69441137  0.75679833    -0.11940
C946        C  0.06513442  0.67975821  0.71685515     0.02730
C947        C  0.04902938  0.64843729  0.71462859    -0.11360
H948        H  0.04807812  0.63478546  0.82044699     0.08330
H949        H  0.08576764  0.71848793  0.75912920     0.05860
H950        H  0.04140680  0.63709614  0.68380880     0.05700
C951        C  0.43076252  0.99191387  0.72486741     0.01900
C952        C  0.41074310  0.96119345  0.73634888     0.01900
C953        C  0.42132300  0.94144434  0.73858716     0.01900
C954        C  0.45207403  0.95199513  0.73416314     0.01900
C955        C  0.47291141  0.98297732  0.73009532     0.01900
C956        C  0.46263873  0.50312349  0.72655109     0.01900
C957        C  0.48066403  0.55027404  0.76903649    -0.09540
C958        C  0.48501909  0.53593891  0.73380863     0.06650
C959        C  0.01020362  0.55320902  0.70734584    -0.03310
C960        C  0.02927866  0.58378928  0.71576393    -0.07760
C961        C  0.02343392  0.59846790  0.74884457     0.05770
C962        C  0.99865496  0.58117703  0.77577945    -0.02790
Br963      Br  0.48523069  0.59801661  0.81883002    -0.02480
H964        H  0.46179325  0.53748428  0.78997264     0.09680
H965        H  0.04819224  0.59649874  0.69485968     0.07700
Br966      Br  0.01814338  0.53832182  0.65563390    -0.02910
C967        C  0.33952083  0.94845840  0.79175608    -0.09540
C968        C  0.31758082  0.92774030  0.76268786     0.06650
C969        C  0.32629244  0.91441834  0.73165360    -0.03310
C970        C  0.35615305  0.92802558  0.72050951    -0.07760
C971        C  0.37868884  0.94865045  0.74846913     0.05770
C972        C  0.36990958  0.95732979  0.78642557    -0.02790
Br973      Br  0.39896000  0.48450877  0.82760619    -0.02480
H974        H  0.33326142  0.95800197  0.81774092     0.09680
H975        H  0.36144134  0.92198952  0.69017539     0.07700
Br976      Br  0.29963293  0.87371580  0.71436032    -0.02910
C977        C  0.47993372  0.93489151  0.77726632    -0.09540
C978        C  0.46269841  0.93094627  0.74079251     0.06650
C979        C  0.45567656  0.90693762  0.71210651    -0.03310
C980        C  0.46444770  0.88707635  0.72147901    -0.07760
C981        C  0.48306263  0.89187365  0.75660453     0.05770
C982        C  0.49123309  0.91660543  0.78436795    -0.02790
Br983      Br  0.02031995  0.92915297  0.82931291    -0.02480
H984        H  0.98562404  0.95313322  0.79966090     0.09680
H985        H  0.45783950  0.86838058  0.69952868     0.07700
Br986      Br  0.43757213  0.90131430  0.65692732    -0.02910
C987        C  0.05595623  0.71244256  0.61590016    -0.09540
C988        C  0.08570554  0.73562961  0.60787686     0.06650
C989        C  0.10864587  0.73942191  0.63575238    -0.03310
C990        C  0.10142281  0.72044679  0.67005618    -0.07760
C991        C  0.07171520  0.69760521  0.67800671     0.05770
C992        C  0.04883470  0.69373421  0.65049156    -0.02790
Br993      Br  0.00715519  0.66494689  0.66046213    -0.02480
H994        H  0.03783618  0.70900097  0.59551656     0.09680
H995        H  0.11918262  0.72387444  0.69126104     0.07700
Br996      Br  0.15015246  0.77075962  0.63130137    -0.02910
C997        C  0.05678702  0.71570567  0.89013821    -0.09540
C998        C  0.08532752  0.73058305  0.90975518     0.06650
C999        C  0.10755343  0.72574275  0.89232271    -0.03310
C1000       C  0.10116899  0.70763378  0.85542045    -0.07760
C1001       C  0.07301092  0.69395338  0.83559474     0.05770
C1002       C  0.05063847  0.69776369  0.85350804    -0.02790
Br1003     Br  0.01176923  0.68033682  0.82743829    -0.02480
H1004       H  0.03915762  0.71863289  0.90244938     0.09680
H1005       H  0.11847299  0.70475444  0.84153634     0.07700
Br1006     Br  0.14720105  0.74311994  0.91584070    -0.02910
C1007       C  0.18216149  0.84597800  0.87460907    -0.09540
C1008       C  0.18214165  0.86534566  0.90629189     0.06650
C1009       C  0.20079777  0.89642912  0.90119400    -0.03310
C1010       C  0.21880120  0.90744193  0.86481854    -0.07760
C1011       C  0.21832556  0.88794440  0.83306078     0.05770
C1012       C  0.19991561  0.85699899  0.83823009    -0.02790
Br1013     Br  0.19904026  0.82893436  0.79705130    -0.02480
H1014       H  0.16808688  0.82207273  0.87798038     0.09680
H1015       H  0.23324398  0.93129350  0.86128468     0.07700
Br1016     Br  0.20407952  0.92482357  0.94384075    -0.02910
C1017       C  0.21180025  0.87306253  0.60569170    -0.09540
C1018       C  0.18675728  0.87564842  0.60315695     0.06650
C1019       C  0.18357715  0.89361773  0.63448993    -0.03310
C1020       C  0.20266641  0.90448349  0.67035185    -0.07760
C1021       C  0.22626484  0.89944119  0.67487168     0.05770
C1022       C  0.23185676  0.88538747  0.63990177    -0.02790
Br1023     Br  0.26541232  0.88097447  0.63415448    -0.02480
H1024       H  0.21583897  0.86106518  0.58060694     0.09680
H1025       H  0.19871544  0.91660094  0.69531194     0.07700
Br1026     Br  0.15386572  0.90410165  0.63117522    -0.02910
C1027       C  0.05162468  0.84435325  0.83676420    -0.09540
C1028       C  0.02172701  0.83710864  0.83812337     0.06650
C1029       C  0.00475128  0.82418511  0.87517206    -0.03310
C1030       C  0.01785602  0.81862739  0.90965343    -0.07760
C1031       C  0.04778798  0.82596230  0.90779746     0.05770
C1032       C  0.06452305  0.83866747  0.87069513    -0.02790
Br1033     Br  0.10457052  0.84691450  0.86333305    -0.02480
H1034       H  0.06506588  0.85420762  0.80858658     0.09680
H1035       H  0.00475834  0.80880995  0.93807986     0.07700
Br1036     Br  0.96352744  0.81255193  0.87952066    -0.02910
C1037       C  0.05170308  0.83796418  0.68380121    -0.09540
C1038       C  0.02448930  0.83699556  0.68174757     0.06650
C1039       C  0.00936418  0.83030115  0.64208107    -0.03310
C1040       C  0.02240784  0.82630337  0.60538051    -0.07760
C1041       C  0.04986183  0.82803335  0.60784147     0.05770
C1042       C  0.06391704  0.83271551  0.64753735    -0.02790
Br1043     Br  0.09841504  0.82962641  0.65427087    -0.02480
H1044       H  0.06357943  0.84270351  0.71384081     0.09680
H1045       H  0.01093441  0.82144354  0.57495247     0.07700
Br1046     Br  0.47009765  0.82414049  0.63631521    -0.02910
C1047       C  0.02216192  0.51218385  0.76915491    -0.09540
C1048       C  0.00566320  0.99413436  0.73380781     0.06650
C1049       C  0.02014429  0.98541113  0.70405772    -0.03310
C1050       C  0.04960407  0.99337007  0.71107586    -0.07760
C1051       C  0.06680041  0.01286199  0.74489299     0.05770
C1052       C  0.05274632  0.52281961  0.77377838    -0.02790
Br1053     Br  0.07395925  0.55337945  0.81704113    -0.02480
H1054       H  0.01142383  0.51892784  0.79256042     0.09680
H1055       H  0.05956808  0.98530919  0.68837973     0.07700
Br1056     Br  0.50281654  0.96617747  0.65022136    -0.02910
C1057       C  0.20263224  0.55749590  0.61826403    -0.09540
C1058       C  0.19904580  0.57668135  0.59245290     0.06650
C1059       C  0.17575860  0.58183213  0.60232709    -0.03310
C1060       C  0.15860573  0.56998086  0.63897546    -0.07760
C1061       C  0.16331597  0.55217378  0.66590055     0.05770
C1062       C  0.18485993  0.54504767  0.65438644    -0.02790
Br1063     Br  0.19023619  0.51760669  0.68575439    -0.02480
H1064       H  0.21970210  0.55249329  0.61084908     0.09680
H1065       H  0.14182380  0.57529334  0.64693480     0.07700
Br1066     Br  0.16502874  0.60390595  0.56710506    -0.02910
C1067       C  0.18057145  0.55007419  0.89392086    -0.09540
C1068       C  0.20216166  0.58081546  0.89568498     0.06650
C1069       C  0.20476817  0.59834675  0.86106554    -0.03310
C1070       C  0.18585637  0.58519873  0.82590143    -0.07760
C1071       C  0.16437178  0.55453116  0.82381073     0.05770
C1072       C  0.16157460  0.53684672  0.85834858    -0.02790
Br1073     Br  0.13339832  0.49461624  0.85759182    -0.02480
H1074       H  0.17844620  0.53635266  0.92030055     0.09680
H1075       H  0.18830201  0.59902672  0.79946935     0.07700
Br1076     Br  0.23534459  0.63987483  0.85799643    -0.02910
C1077       C  0.38310182  0.89084692  0.71035243    -0.09540
C1078       C  0.39990116  0.90889889  0.74520139     0.06650
C1079       C  0.39743592  0.89550353  0.78425751    -0.03310
C1080       C  0.38022138  0.86436450  0.78663562    -0.07760
C1081       C  0.36333969  0.84614731  0.75124967     0.05770
C1082       C  0.36360385  0.86030360  0.71351806    -0.02790
Br1083     Br  0.33698854  0.84075789  0.66542508    -0.02480
H1084       H  0.38540793  0.90063756  0.67970467     0.09680
H1085       H  0.38059841  0.85460696  0.81621232     0.07700
Br1086     Br  0.41732450  0.91879280  0.83476835    -0.02910
C1087       C  0.28767046  0.74057616  0.85540803    -0.09540
C1088       C  0.31498970  0.75232617  0.83404362     0.06650
C1089       C  0.33670673  0.74694281  0.84889053    -0.03310
C1090       C  0.33042400  0.72877035  0.88352875    -0.07760
C1091       C  0.30253229  0.71557795  0.90436526     0.05770
C1092       C  0.28130314  0.72256050  0.89068605    -0.02790
Br1093     Br  0.24316449  0.70857167  0.91749690    -0.02480
H1094       H  0.27097970  0.74485588  0.84395611     0.09680
H1095       H  0.34739100  0.72442638  0.89335921     0.07700
Br1096     Br  0.37490555  0.76289664  0.82138148    -0.02910
C1097       C  0.29043538  0.73270494  0.66073604    -0.09540
C1098       C  0.31957096  0.74685252  0.67735930     0.06650
C1099       C  0.34153095  0.74428891  0.65537983    -0.03310
C1100       C  0.33389282  0.72697512  0.61771452    -0.07760
C1101       C  0.30445861  0.71211600  0.60095057     0.05770
C1102       C  0.28267068  0.71566467  0.62278415    -0.02790
Br1103     Br  0.24205937  0.69883600  0.60332893    -0.02480
H1104       H  0.27363203  0.73515354  0.67735250     0.09680
H1105       H  0.35110787  0.72480327  0.60196409     0.07700
Br1106     Br  0.38187068  0.76301666  0.67656971    -0.02910
C1107       C  0.38980931  0.50588562  0.72449732    -0.09540
C1108       C  0.41932665  0.51304967  0.71588902     0.06650
C1109       C  0.43751408  0.54171398  0.69854365    -0.03310
C1110       C  0.43204047  0.56447278  0.70891234    -0.07760
C1111       C  0.40559241  0.55776411  0.73010548     0.05770
C1112       C  0.38327942  0.52765812  0.73433864    -0.02790
Br1113     Br  0.34236878  0.51470336  0.74770666    -0.02480
H1114       H  0.37064237  0.98402838  0.71957895     0.09680
H1115       H  0.44678539  0.58658695  0.69681312     0.07700
Br1116     Br  0.45835590  0.54630600  0.64623931    -0.02910
C1117       C  0.34789528  0.58759385  0.63624246    -0.09540
C1118       C  0.36452879  0.61172327  0.66503492     0.06650
C1119       C  0.36812558  0.63940563  0.65672577    -0.03310
C1120       C  0.35433369  0.64220335  0.62090653    -0.07760
C1121       C  0.33702680  0.61783701  0.59255979     0.05770
C1122       C  0.33444702  0.59042697  0.60013289    -0.02790
Br1123     Br  0.31431865  0.55633945  0.56177921    -0.02480
H1124       H  0.34504524  0.56618203  0.64210787     0.09680
H1125       H  0.35695669  0.66356839  0.61549588     0.07700
Br1126     Br  0.39259629  0.67437642  0.69201725    -0.02910
C1127       C  0.36127788  0.63835853  0.87712895    -0.09540
C1128       C  0.33589577  0.61377064  0.89544823     0.06650
C1129       C  0.32577926  0.58487985  0.87770792    -0.03310
C1130       C  0.34007813  0.58158419  0.84181522    -0.07760
C1131       C  0.36439561  0.60637835  0.82283073     0.05770
C1132       C  0.37537821  0.63485425  0.84132794    -0.02790
Br1133     Br  0.40972368  0.66965926  0.81868316    -0.02480
H1134       H  0.37003462  0.66068690  0.89008607     0.09680
H1135       H  0.33150079  0.55955836  0.82770079     0.07700
Br1136     Br  0.29260700  0.54864073  0.89960390    -0.02910
C1137       C  0.89769092  0.08051788  0.23647637     0.02740
C1138       C  0.88969708  0.08617238  0.27705500    -0.13410
C1139       C  0.87565730  0.10250193  0.28117603     0.00240
C1140       C  0.86893551  0.11233394  0.24442090    -0.11940
C1141       C  0.87677385  0.10671845  0.20388857     0.02730
C1142       C  0.89199041  0.09162349  0.20037993    -0.11360
H1143       H  0.89306255  0.07668923  0.30496458     0.08330
H1144       H  0.85594026  0.12275090  0.24730303     0.05860
H1145       H  0.89700589  0.08615217  0.16904105     0.05700
C1146       C  0.84676696  0.31296783  0.25355430     0.02740
C1147       C  0.84433795  0.29552663  0.21719323    -0.13410
C1148       C  0.82635344  0.26448895  0.21740889     0.00240
C1149       C  0.81417207  0.25031781  0.25566478    -0.11940
C1150       C  0.81981010  0.26720692  0.29344122     0.02730
C1151       C  0.83463998  0.29834404  0.29218538    -0.11360
H1152       H  0.85620598  0.30585025  0.18825628     0.08330
H1153       H  0.80188203  0.22619950  0.25646186     0.05860
H1154       H  0.83746108  0.31085072  0.32156364     0.05700
Fe1155     Fe  0.74950028  0.14679034  0.99922026     1.65780
Fe1156     Fe  0.76695466  0.09294377  0.49470128     1.73250
Fe1157     Fe  0.82283721  0.16698682  0.49529476     1.54410
O1158       O  0.81730736  0.19000468  0.44855971    -0.82060
O1159       O  0.79782387  0.09963298  0.04103383    -0.80370
O1160       O  0.77113560  0.18051888  0.45626315    -0.84570
O1161       O  0.77032318  0.17573544  0.05023300    -0.79430
O1162       O  0.83291366  0.14574803  0.44766956    -0.81200
O1163       O  0.73606034  0.08152811  0.04316475    -0.83940
C1164       C  0.79734393  0.19242822  0.06227948     0.96820
C1165       C  0.79657509  0.19423994  0.43858700     1.04260
O1166       O  0.77975088  0.13551088  0.49628506    -1.12930
O1167       O  0.73449144  0.08168337  0.44835658    -0.75360
O1168       O  0.72578226  0.11867655  0.44867096    -0.78850
O1169       O  0.81872876  0.19237721  0.04306707    -0.79530
C1170       C  0.72187753  0.09440356  0.43330175     0.95730
O1171       O  0.72322670  0.11514891  0.04265832    -0.77490
O1172       O  0.79612262  0.09820306  0.44599238    -0.82690
C1173       C  0.82192974  0.12186009  0.05618009     0.98350
C1174       C  0.82073988  0.11942668  0.43195063     1.04270
O1175       O  0.83341448  0.14789130  0.04220145    -0.78330
C1176       C  0.72048287  0.09181065  0.05707219     1.02570
C1177       C  0.59957001  0.52424605  0.24588359     0.02740
C1178       C  0.61525402  0.02882874  0.28426384    -0.13410
C1179       C  0.64655032  0.04221301  0.28409711     0.00240
C1180       C  0.66181292  0.04858436  0.24514792    -0.11940
C1181       C  0.64644351  0.04264100  0.20649890     0.02730
C1182       C  0.61554816  0.03117530  0.20721486    -0.11360
H1183       H  0.60350160  0.02323828  0.31435463     0.08020
H1184       H  0.68605262  0.05971975  0.24511911     0.05860
H1185       H  0.60411033  0.02838421  0.17732388     0.05700
Fe1186     Fe  0.63750047  0.30139323  0.00859186     1.65780
Fe1187     Fe  0.61657687  0.35255166  0.50658190     1.73250
Fe1188     Fe  0.56288987  0.27754928  0.50692663     1.54420
O1189       O  0.56925472  0.25420644  0.45885956    -0.82060
O1190       O  0.58621335  0.34591641  0.05401800    -0.80370
O1191       O  0.61669783  0.26690868  0.46336482    -0.84570
O1192       O  0.61815948  0.27246767  0.05830151    -0.79430
O1193       O  0.55023740  0.29590298  0.46027236    -0.81200
O1194       O  0.64841374  0.36733854  0.05432448    -0.83940
C1195       C  0.59152527  0.25544636  0.07122734     0.96820
C1196       C  0.59086469  0.25167153  0.44635954     1.04260
O1197       O  0.60564470  0.31052504  0.50736651    -1.12930
O1198       O  0.64852919  0.36378128  0.45924615    -0.75360
O1199       O  0.66025609  0.32901226  0.45888372    -0.78850
O1200       O  0.56934041  0.25456592  0.05377596    -0.79530
C1201       C  0.66269233  0.35220158  0.44398290     0.95730
O1202       O  0.66283469  0.33482131  0.05366344    -0.77490
O1203       O  0.58636137  0.34393960  0.45877538    -0.82690
C1204       C  0.56314998  0.32348511  0.06953340     0.98350
C1205       C  0.56205279  0.32159092  0.44473960     1.04270
O1206       O  0.55182512  0.29708470  0.05498317    -0.78330
C1207       C  0.66461854  0.35836887  0.06839622     1.02570
C1208       C  0.99540846  0.37221990  0.25973755     0.02740
C1209       C  0.00449098  0.36435686  0.22184304    -0.13410
C1210       C  0.01305621  0.34349621  0.22137143     0.00240
C1211       C  0.51462494  0.33186920  0.25994995    -0.11940
C1212       C  0.00949589  0.34210120  0.29890054     0.02730
C1213       C  0.99822295  0.36106172  0.29862716    -0.11360
H1214       H  0.00540642  0.37500725  0.19243368     0.08330
H1215       H  0.52223813  0.31643573  0.26007097     0.05860
H1216       H  0.99261618  0.36766929  0.32846425     0.05700
C1217       C  0.78616208  0.42066185  0.26158757     0.02740
C1218       C  0.77286648  0.41902130  0.22176153    -0.13410
C1219       C  0.74167356  0.40586554  0.21754444     0.00240
C1220       C  0.72426641  0.39685206  0.25491311    -0.11940
C1221       C  0.73746326  0.40005582  0.29503900     0.02730
C1222       C  0.76842050  0.41199030  0.29826645    -0.11360
H1223       H  0.78694647  0.42715644  0.19384686     0.08330
H1224       H  0.70012346  0.38620977  0.25279125     0.05860
H1225       H  0.77825535  0.41275336  0.32882794     0.05700
C1226       C  0.54206416  0.13172461  0.25190457     0.02740
C1227       C  0.55252550  0.14701945  0.29145383    -0.13410
C1228       C  0.56780247  0.17820429  0.29403586     0.00240
C1229       C  0.57444241  0.19441139  0.25679958    -0.11940
C1230       C  0.56513798  0.17975798  0.21685652     0.02730
C1231       C  0.54903373  0.14843706  0.21463029    -0.11360
H1232       H  0.54808292  0.13478620  0.32044911     0.08330
H1233       H  0.58576981  0.21848790  0.25913013     0.05860
H1234       H  0.54141140  0.13709570  0.18381059     0.05700
C1235       C  0.93076890  0.49191679  0.22484943     0.01900
C1236       C  0.91074525  0.46119902  0.23634098     0.01900
C1237       C  0.92132081  0.44144596  0.23858277     0.01900
C1238       C  0.95207097  0.45199211  0.23415886     0.01900
C1239       C  0.97291195  0.48297318  0.23009023     0.01900
C1240       C  0.96263985  0.00312451  0.22655353     0.01900
C1241       C  0.98066425  0.05027538  0.26903787    -0.09540
C1242       C  0.98501984  0.03594012  0.23381065     0.06650
C1243       C  0.51020856  0.05320900  0.20734751    -0.03310
C1244       C  0.52928402  0.08378919  0.21576625    -0.07760
C1245       C  0.52343926  0.09846780  0.24884700     0.05770
C1246       C  0.49866033  0.08117678  0.27578194    -0.02790
Br1247     Br  0.98523004  0.09801814  0.31883004    -0.02480
H1248       H  0.96179339  0.03748560  0.28997390     0.09680
H1249       H  0.54819757  0.09649868  0.19486198     0.07700
Br1250     Br  0.51814687  0.03832176  0.15563435    -0.02910
C1251       C  0.83953515  0.44851027  0.29173969    -0.09540
C1252       C  0.81758747  0.42776838  0.26270081     0.06650
C1253       C  0.82629094  0.41442333  0.23169312    -0.03310
C1254       C  0.85614868  0.42802093  0.22053930    -0.07760
C1255       C  0.87869285  0.44866564  0.24847265     0.05770
C1256       C  0.86992274  0.45737768  0.28640656    -0.02790
Br1257     Br  0.89895859  0.98450411  0.32761110    -0.02480
H1258       H  0.83328178  0.45807325  0.31770502     0.09680
H1259       H  0.86142690  0.42196840  0.19021142     0.07700
Br1260     Br  0.79962310  0.37371369  0.21443949    -0.02910
C1261       C  0.97992413  0.43488439  0.27726820    -0.09540
C1262       C  0.96269135  0.43094049  0.24079207     0.06650
C1263       C  0.95567022  0.40693211  0.21210599    -0.03310
C1264       C  0.96444065  0.38707048  0.22147973    -0.07760
C1265       C  0.98305471  0.39186759  0.25660628     0.05770
C1266       C  0.99122356  0.41659851  0.28437071    -0.02790
Br1267     Br  0.52031021  0.42914554  0.32931567    -0.02480
H1268       H  0.48561565  0.45312658  0.29966175     0.09680
H1269       H  0.95783345  0.36837515  0.19952894     0.07700
Br1270     Br  0.93756905  0.40131025  0.15692465    -0.02910
C1271       C  0.55595954  0.21244334  0.11590270    -0.09540
C1272       C  0.58570878  0.23563078  0.10788005     0.06650
C1273       C  0.60864915  0.23942267  0.13575507    -0.03310
C1274       C  0.60142622  0.22044688  0.17005795    -0.07760
C1275       C  0.57171866  0.19760496  0.17800804     0.05770
C1276       C  0.54883813  0.19373420  0.15049318    -0.02790
Br1277     Br  0.50715876  0.16494608  0.16046304    -0.02480
H1278       H  0.53783953  0.20900200  0.09551922     0.09680
H1279       H  0.61918604  0.22387441  0.19126268     0.07700
Br1280     Br  0.65015555  0.27076106  0.13130490    -0.02910
C1281       C  0.55678876  0.21570783  0.39013612    -0.09540
C1282       C  0.58532901  0.23058579  0.40975388     0.06650
C1283       C  0.60755513  0.22574500  0.39232358    -0.03310
C1284       C  0.60117120  0.20763510  0.35542244    -0.07760
C1285       C  0.57301338  0.19395411  0.33559585     0.05770
C1286       C  0.55064066  0.19776479  0.35350720    -0.02790
Br1287     Br  0.51177161  0.18033680  0.32743638    -0.02480
H1288       H  0.53915918  0.21863531  0.40244574     0.09680
H1289       H  0.61847542  0.20475552  0.34153984     0.07700
Br1290     Br  0.64720227  0.24312244  0.41584340    -0.02910
C1291       C  0.68216976  0.34599161  0.37461399    -0.09540
C1292       C  0.68214337  0.36535597  0.40629645     0.06650
C1293       C  0.70079537  0.39644019  0.40120073    -0.03310
C1294       C  0.71880050  0.40745682  0.36482739    -0.07760
C1295       C  0.71833092  0.38796247  0.33306960     0.05770
C1296       C  0.69992577  0.35701637  0.33823731    -0.02790
Br1297     Br  0.69905955  0.32895579  0.29705953    -0.02480
H1298       H  0.66809876  0.32208592  0.37798360     0.09680
H1299       H  0.73323962  0.43130889  0.36129504     0.07700
Br1300     Br  0.70406930  0.42483121  0.44384747    -0.02910
C1301       C  0.71180058  0.37305255  0.10571025    -0.09540
C1302       C  0.68676435  0.37564898  0.10316152     0.06650
C1303       C  0.68358911  0.39362765  0.13448402    -0.03310
C1304       C  0.70267657  0.40449506  0.17034784    -0.07760
C1305       C  0.72626857  0.39944487  0.17487992     0.05770
C1306       C  0.73185480  0.38537760  0.13992321    -0.02790
Br1307     Br  0.76539784  0.38094208  0.13420567    -0.02480
H1308       H  0.71583528  0.36104594  0.08063561     0.09680
H1309       H  0.69872952  0.41662044  0.19529979     0.07700
Br1310     Br  0.65388680  0.40412286  0.13115310    -0.02910
C1311       C  0.55162233  0.34435423  0.33676435    -0.09540
C1312       C  0.52172368  0.33710672  0.33812206     0.06650
C1313       C  0.50474741  0.32418154  0.37516972    -0.03310
C1314       C  0.51785263  0.31862502  0.40965159    -0.07760
C1315       C  0.54778551  0.32596273  0.40779701     0.05770
C1316       C  0.56452113  0.33866948  0.37069569    -0.02790
Br1317     Br  0.60456992  0.34691981  0.36333528    -0.02480
H1318       H  0.56506396  0.35421000  0.30858755     0.09680
H1319       H  0.50475455  0.30880619  0.43807725     0.07700
Br1320     Br  0.46352233  0.31254441  0.37951620    -0.02910
C1321       C  0.55170995  0.33797614  0.18380279    -0.09540
C1322       C  0.52449227  0.33699962  0.18174771     0.06650
C1323       C  0.50936648  0.33030061  0.14208132    -0.03310
C1324       C  0.52241209  0.32630396  0.10538219    -0.07760
C1325       C  0.54986955  0.32804106  0.10784439     0.05770
C1326       C  0.56392682  0.33272989  0.14754024    -0.02790
Br1327     Br  0.59843137  0.32965215  0.15427639    -0.02480
H1328       H  0.56358677  0.34271936  0.21384277     0.09680
H1329       H  0.51093760  0.32143959  0.07495430     0.07700
Br1330     Br  0.97009644  0.32413300  0.13631699    -0.02910
C1331       C  0.52216420  0.01218204  0.26915609    -0.09540
C1332       C  0.50566365  0.49412780  0.23380657     0.06650
C1333       C  0.52014500  0.48540475  0.20405680    -0.03310
C1334       C  0.54960479  0.49336376  0.21107552    -0.07760
C1335       C  0.56680072  0.51285538  0.24489319     0.05770
C1336       C  0.55274880  0.02281812  0.27377917    -0.02790
Br1337     Br  0.57396153  0.05337759  0.31704243    -0.02480
H1338       H  0.51142612  0.01892582  0.29256194     0.09680
H1339       H  0.55956932  0.48530361  0.18837910     0.07700
Br1340     Br  0.00281678  0.46617037  0.15022012    -0.02910
C1341       C  0.70263571  0.05749550  0.11826170    -0.09540
C1342       C  0.69904839  0.07667998  0.09244972     0.06650
C1343       C  0.67576030  0.08182958  0.10232323    -0.03310
C1344       C  0.65860768  0.06997864  0.13897199    -0.07760
C1345       C  0.66331888  0.05217280  0.16589832     0.05770
C1346       C  0.68486356  0.04504744  0.15438458    -0.02790
Br1347     Br  0.69024101  0.01760767  0.18575363    -0.02480
H1348       H  0.71970626  0.05249377  0.11084716     0.09680
H1349       H  0.64182521  0.07529050  0.14693061     0.07700
Br1350     Br  0.66502881  0.10390126  0.06709928    -0.02910
C1351       C  0.68057598  0.05007250  0.39391927    -0.09540
C1352       C  0.70216649  0.08081370  0.39568409     0.06650
C1353       C  0.70477312  0.09834538  0.36106500    -0.03310
C1354       C  0.68586121  0.08519789  0.32590075    -0.07760
C1355       C  0.66437606  0.05453047  0.32380954     0.05770
C1356       C  0.66157883  0.03684560  0.35834696    -0.02790
Br1357     Br  0.63340176  0.99461530  0.35758978    -0.02480
H1358       H  0.67845044  0.03635064  0.42029867     0.09680
H1359       H  0.68830699  0.09902628  0.29946915     0.07700
Br1360     Br  0.73534936  0.13987366  0.35799702    -0.02910
C1361       C  0.88310082  0.39084800  0.21035007    -0.09540
C1362       C  0.89989669  0.40890147  0.24519991     0.06650
C1363       C  0.89742777  0.39550771  0.28425881    -0.03310
C1364       C  0.88021210  0.36436865  0.28663946    -0.07760
C1365       C  0.86333143  0.34615039  0.25125341     0.05770
C1366       C  0.86359802  0.36030590  0.21351977    -0.02790
Br1367     Br  0.83697624  0.34076191  0.16543269    -0.02480
H1368       H  0.88540947  0.40063753  0.17970035     0.09680
H1369       H  0.88058733  0.35461219  0.31621815     0.07700
Br1370     Br  0.91731416  0.41879957  0.33476888    -0.02910
C1371       C  0.78766921  0.24057844  0.35541321    -0.09540
C1372       C  0.81498723  0.25232772  0.33404569     0.06650
C1373       C  0.83670389  0.24694226  0.34888776    -0.03310
C1374       C  0.83042212  0.22876899  0.38352477    -0.07760
C1375       C  0.80253169  0.21557768  0.40436464     0.05770
C1376       C  0.78130276  0.22256172  0.39068970    -0.02790
Br1377     Br  0.74316547  0.20857347  0.41750449    -0.02480
H1378       H  0.77097857  0.24485942  0.34396471     0.09680
H1379       H  0.84738878  0.22442357  0.39335164     0.07700
Br1380     Br  0.87490084  0.26289441  0.32137374    -0.02910
C1381       C  0.79042912  0.23270436  0.16073943    -0.09540
C1382       C  0.81956535  0.24685584  0.17736138     0.06650
C1383       C  0.84152693  0.24429510  0.15538151    -0.03310
C1384       C  0.83388994  0.22698059  0.11771705    -0.07760
C1385       C  0.80445521  0.21211765  0.10095424     0.05770
C1386       C  0.78266543  0.21566314  0.12278841    -0.02790
Br1387     Br  0.74205248  0.19882799  0.10333611    -0.02480
H1388       H  0.77362436  0.23515037  0.17735647     0.09680
H1389       H  0.85110650  0.22481141  0.10196623     0.07700
Br1390     Br  0.88186752  0.26302763  0.17656983    -0.02910
C1391       C  0.88981128  0.00588771  0.22450655    -0.09540
C1392       C  0.91932744  0.01305019  0.21589259     0.06650
C1393       C  0.93751382  0.04171298  0.19854215    -0.03310
C1394       C  0.93204131  0.06447288  0.20890840    -0.07760
C1395       C  0.90559536  0.05776659  0.23010584     0.05770
C1396       C  0.88328269  0.02766126  0.23434601    -0.02790
Br1397     Br  0.84237324  0.01470794  0.24772035    -0.02480
H1398       H  0.87064708  0.48400601  0.21942206     0.09680
H1399       H  0.94678553  0.08658592  0.19680509     0.07700
Br1400     Br  0.95835432  0.04630127  0.14623768    -0.02910
C1401       C  0.84789769  0.08759635  0.13624257    -0.09540
C1402       C  0.86453159  0.11172578  0.16503487     0.06650
C1403       C  0.86812860  0.13940824  0.15672576    -0.03310
C1404       C  0.85433675  0.14220612  0.12090661    -0.07760
C1405       C  0.83702963  0.11783987  0.09255982     0.05770
C1406       C  0.83444939  0.09042960  0.10013310    -0.02790
Br1407     Br  0.81432023  0.05634185  0.06177997    -0.02480
H1408       H  0.84504741  0.06618445  0.14210803     0.09680
H1409       H  0.85696006  0.16357130  0.11549604     0.07700
Br1410     Br  0.89259960  0.17437899  0.19201717    -0.02910
C1411       C  0.86128195  0.13836058  0.37713026    -0.09540
C1412       C  0.83589978  0.11377245  0.39544911     0.06650
C1413       C  0.82578313  0.08488190  0.37770773    -0.03310
C1414       C  0.84008200  0.08158675  0.34181462    -0.07760
C1415       C  0.86439955  0.10638119  0.32283069     0.05770
C1416       C  0.87538222  0.13485682  0.34132879    -0.02790
Br1417     Br  0.90972763  0.16966214  0.31868454    -0.02480
H1418       H  0.87003885  0.16068881  0.39008811     0.09680
H1419       H  0.83150460  0.05956112  0.32769940     0.07700
Br1420     Br  0.79261032  0.04864252  0.39960217    -0.02910
C1421       C  0.89768187  0.08050995  0.73647613     0.02740
C1422       C  0.88968653  0.08616242  0.77705477    -0.13410
C1423       C  0.87564833  0.10249349  0.78117663     0.00240
C1424       C  0.86892756  0.11232690  0.74442190    -0.11940
C1425       C  0.87676630  0.10671211  0.70388941     0.02730
C1426       C  0.89198256  0.09161695  0.70038034    -0.11360
H1427       H  0.89305132  0.07667826  0.80496374     0.08330
H1428       H  0.85593325  0.12274483  0.74730448     0.05860
H1429       H  0.89699941  0.08614708  0.66904139     0.05700
C1430       C  0.84676981  0.31296364  0.75355431     0.02740
C1431       C  0.84434140  0.29552174  0.71719477    -0.13410
C1432       C  0.82635486  0.26448425  0.71741099     0.00240
C1433       C  0.81417140  0.25031382  0.75566669    -0.11940
C1434       C  0.81980931  0.26720369  0.79344229     0.02730
C1435       C  0.83464081  0.29834080  0.79218528    -0.11360
H1436       H  0.85621110  0.30584469  0.68825851     0.08330
H1437       H  0.80187996  0.22619549  0.75646444     0.05860
H1438       H  0.83746170  0.31084826  0.82156270     0.05700
Fe1439     Fe  0.74950150  0.14679133  0.49921725     1.65780
Fe1440     Fe  0.76695370  0.09294308  0.99470542     1.73250
Fe1441     Fe  0.82283593  0.16698610  0.99529678     1.54410
O1442       O  0.81730540  0.19000227  0.94856028    -0.82060
O1443       O  0.79782357  0.09963284  0.54103065    -0.80370
O1444       O  0.77113482  0.18051891  0.95626777    -0.84570
O1445       O  0.77032488  0.17573713  0.55022917    -0.79430
O1446       O  0.83291246  0.14574619  0.94767267    -0.81200
O1447       O  0.73606020  0.08152816  0.54315990    -0.83940
C1448       C  0.79734534  0.19242822  0.56227771     0.96820
C1449       C  0.79657362  0.19423871  0.93858963     1.04260
O1450       O  0.77974976  0.13551008  0.99628827    -1.12930
O1451       O  0.73448959  0.08168198  0.94836136    -0.75360
O1452       O  0.72578225  0.11867639  0.94867260    -0.78850
O1453       O  0.81873006  0.19237653  0.54306643    -0.79530
C1454       C  0.72187689  0.09440286  0.93330457     0.95730
O1455       O  0.72322887  0.11515081  0.54265679    -0.77490
O1456       O  0.79612039  0.09820167  0.94599585    -0.82690
C1457       C  0.82192964  0.12185942  0.55617714     0.98350
C1458       C  0.82073786  0.11942464  0.93195396     1.04270
O1459       O  0.83341538  0.14789073  0.54219838    -0.78330
C1460       C  0.72048401  0.09181175  0.55706923     1.02570
C1461       C  0.59956573  0.52424908  0.74588460     0.02740
C1462       C  0.61525586  0.02883227  0.78426290    -0.13410
C1463       C  0.64655206  0.04221531  0.78409638     0.00240
C1464       C  0.66181472  0.04858640  0.74514714    -0.11940
C1465       C  0.64644557  0.04264403  0.70649802     0.02730
C1466       C  0.61555040  0.03117942  0.70721398    -0.11360
H1467       H  0.60350333  0.02324204  0.81435360     0.08020
H1468       H  0.68605432  0.05972084  0.74511840     0.05860
H1469       H  0.60411278  0.02838892  0.67732301     0.05700
Fe1470     Fe  0.63749637  0.30139455  0.50858773     1.65780
Fe1471     Fe  0.61658533  0.35255368  0.00658429     1.73250
Fe1472     Fe  0.56289494  0.27755229  0.00693066     1.54420
O1473       O  0.56925800  0.25420757  0.95886456    -0.82060
O1474       O  0.58620269  0.34591168  0.55401363    -0.80370
O1475       O  0.61670060  0.26690802  0.96336831    -0.84570
O1476       O  0.61815689  0.27246909  0.55829820    -0.79430
O1477       O  0.55024407  0.29590666  0.96027518    -0.81200
O1478       O  0.64840330  0.36733701  0.55432448    -0.83940
C1479       C  0.59152273  0.25544616  0.57122324     0.96820
C1480       C  0.59086727  0.25167184  0.94636345     1.04260
O1481       O  0.60565054  0.31052627  0.00737021    -1.12930
O1482       O  0.64853479  0.36377958  0.95924584    -0.75360
O1483       O  0.66026091  0.32901001  0.95888785    -0.78850
O1484       O  0.56933718  0.25456365  0.55377065    -0.79530
C1485       C  0.66269653  0.35219815  0.94398375     0.95730
O1486       O  0.66282920  0.33482342  0.55365843    -0.77490
O1487       O  0.58636862  0.34394305  0.95877972    -0.82690
C1488       C  0.56314118  0.32347932  0.56953048     0.98350
C1489       C  0.56205979  0.32159492  0.94474342     1.04270
O1490       O  0.55181844  0.29707909  0.55498085    -0.78330
C1491       C  0.66461031  0.35836919  0.56839351     1.02570
C1492       C  0.99541531  0.37222598  0.75974223     0.02740
C1493       C  0.00449537  0.36436026  0.72184781    -0.13410
C1494       C  0.01305765  0.34349730  0.72137669     0.00240
C1495       C  0.51462807  0.33187159  0.75995535    -0.11940
C1496       C  0.00950189  0.34210709  0.79890652     0.02730
C1497       C  0.99823096  0.36106933  0.79863259    -0.11360
H1498       H  0.00541063  0.37501003  0.69243793     0.08330
H1499       H  0.52223880  0.31643619  0.76007730     0.05860
H1500       H  0.99262634  0.36767904  0.82846964     0.05700
C1501       C  0.78615417  0.42063672  0.76157654     0.02740
C1502       C  0.77286075  0.41900762  0.72175347    -0.13410
C1503       C  0.74166846  0.40585615  0.71753588     0.00240
C1504       C  0.72426080  0.39683916  0.75490439    -0.11940
C1505       C  0.73745672  0.40003630  0.79502887     0.02730
C1506       C  0.76841234  0.41196303  0.79825487    -0.11360
H1507       H  0.78694242  0.42715019  0.69384173     0.08330
H1508       H  0.70011827  0.38620061  0.75278392     0.05860
H1509       H  0.77824553  0.41272004  0.82881502     0.05700
C1510       C  0.54206116  0.13172751  0.75190439     0.02740
C1511       C  0.55252292  0.14702217  0.79145362    -0.13410
C1512       C  0.56780112  0.17820709  0.79403571     0.00240
C1513       C  0.57444148  0.19441436  0.75679943    -0.11940
C1514       C  0.56513634  0.17976098  0.71685638     0.02730
C1515       C  0.54903123  0.14844005  0.71463021    -0.11360
H1516       H  0.54807995  0.13478876  0.82044883     0.08330
H1517       H  0.58576975  0.21849094  0.75913000     0.05860
H1518       H  0.54140864  0.13709875  0.68381052     0.05700
C1519       C  0.93075973  0.49191164  0.72486440     0.01900
C1520       C  0.91074013  0.46119161  0.73634720     0.01900
C1521       C  0.92131962  0.44144227  0.73858721     0.01900
C1522       C  0.95207047  0.45199259  0.73416365     0.01900
C1523       C  0.97290786  0.48297454  0.73009424     0.01900
C1524       C  0.96264182  0.00312581  0.72655244     0.01900
C1525       C  0.98066795  0.05027622  0.76903917    -0.09540
C1526       C  0.98502267  0.03594116  0.73381088     0.06650
C1527       C  0.51020617  0.05321192  0.70734812    -0.03310
C1528       C  0.52928092  0.08379224  0.71576606    -0.07760
C1529       C  0.52343600  0.09847076  0.74884661     0.05770
C1530       C  0.49865715  0.08117972  0.77578159    -0.02790
Br1531     Br  0.98523497  0.09801864  0.81883360    -0.02480
H1532       H  0.96179721  0.03748641  0.78997528     0.09680
H1533       H  0.54819439  0.09650181  0.69486169     0.07700
Br1534     Br  0.51814601  0.03832512  0.65563583    -0.02910
C1535       C  0.83951978  0.44846050  0.79175455    -0.09540
C1536       C  0.81757921  0.42774169  0.76268771     0.06650
C1537       C  0.82628960  0.41441786  0.73165480    -0.03310
C1538       C  0.85614990  0.42802389  0.72051002    -0.07760
C1539       C  0.87868632  0.44864961  0.74846817     0.05770
C1540       C  0.86990814  0.45733090  0.78642372    -0.02790
Br1541     Br  0.89896404  0.98452292  0.82760041    -0.02480
H1542       H  0.83326110  0.45800540  0.81773846     0.09680
H1543       H  0.86143741  0.42198658  0.69017630     0.07700
Br1544     Br  0.79962841  0.37371524  0.71436309    -0.02910
C1545       C  0.97993053  0.43489059  0.77726937    -0.09540
C1546       C  0.96269482  0.43094393  0.74079538     0.06650
C1547       C  0.95567340  0.40693472  0.71211080    -0.03310
C1548       C  0.96444571  0.38707456  0.72148462    -0.07760
C1549       C  0.98306162  0.39187372  0.75660972     0.05770
C1550       C  0.99123135  0.41660587  0.78437194    -0.02790
Br1551     Br  0.52032076  0.42915519  0.82931322    -0.02480
H1552       H  0.48562307  0.45313332  0.79966068     0.09680
H1553       H  0.95783782  0.36837832  0.69953537     0.07700
Br1554     Br  0.93756843  0.40130937  0.65693157    -0.02910
C1555       C  0.55595758  0.21244439  0.61590076    -0.09540
C1556       C  0.58570682  0.23563136  0.60787685     0.06650
C1557       C  0.60864735  0.23942391  0.63575212    -0.03310
C1558       C  0.60142455  0.22044919  0.67005644    -0.07760
C1559       C  0.57171696  0.19760770  0.67800761     0.05770
C1560       C  0.54883629  0.19373641  0.65049257    -0.02790
Br1561     Br  0.50715683  0.16494925  0.66046383    -0.02480
H1562       H  0.53783736  0.20900259  0.59551733     0.09680
H1563       H  0.61918451  0.22387706  0.69126116     0.07700
Br1564     Br  0.65015384  0.27076160  0.63129999    -0.02910
C1565       C  0.55678989  0.21570909  0.89014034    -0.09540
C1566       C  0.58533061  0.23058659  0.90975668     0.06650
C1567       C  0.60755640  0.22574639  0.89232341    -0.03310
C1568       C  0.60117162  0.20763740  0.85542107    -0.07760
C1569       C  0.57301331  0.19395683  0.83559603     0.05770
C1570       C  0.55064098  0.19776704  0.85351010    -0.02790
Br1571     Br  0.51177139  0.18033985  0.82744140    -0.02480
H1572       H  0.53916057  0.21863622  0.90245212     0.09680
H1573       H  0.61847552  0.20475812  0.84153643     0.07700
Br1574     Br  0.64720427  0.24312365  0.91584049    -0.02910
C1575       C  0.68216347  0.34598049  0.87461082    -0.09540
C1576       C  0.68214430  0.36534833  0.90629389     0.06650
C1577       C  0.70079953  0.39643176  0.90119511    -0.03310
C1578       C  0.71880151  0.40744440  0.86481845    -0.07760
C1579       C  0.71832518  0.38794671  0.83306044     0.05770
C1580       C  0.69991617  0.35700133  0.83823061    -0.02790
Br1581     Br  0.69904039  0.32893666  0.79705148    -0.02480
H1582       H  0.66808941  0.32207524  0.87798288     0.09680
H1583       H  0.73324383  0.43129595  0.86128397     0.07700
Br1584     Br  0.70408211  0.42482643  0.94384214    -0.02910
C1585       C  0.71179990  0.37306454  0.60569167    -0.09540
C1586       C  0.68675668  0.37565001  0.60315694     0.06650
C1587       C  0.68357635  0.39361937  0.63448961    -0.03310
C1588       C  0.70266560  0.40448544  0.67035143    -0.07760
C1589       C  0.72626426  0.39944353  0.67487132     0.05770
C1590       C  0.73185653  0.38539000  0.63990154    -0.02790
Br1591     Br  0.76541296  0.38097832  0.63415390    -0.02480
H1592       H  0.71583881  0.36106728  0.58060699     0.09680
H1593       H  0.69871446  0.41660284  0.69531140     0.07700
Br1594     Br  0.65386473  0.40410303  0.63117464    -0.02910
C1595       C  0.55162851  0.34435781  0.83676778    -0.09540
C1596       C  0.52173060  0.33711251  0.83812706     0.06650
C1597       C  0.50475520  0.32418918  0.87517605    -0.03310
C1598       C  0.51786042  0.31863219  0.90965751    -0.07760
C1599       C  0.54779255  0.32596767  0.90780140     0.05770
C1600       C  0.56452739  0.33867279  0.87069891    -0.02790
Br1601     Br  0.60457504  0.34692039  0.86333681    -0.02480
H1602       H  0.56506944  0.35421201  0.80858990     0.09680
H1603       H  0.50476289  0.30881464  0.93808402     0.07700
Br1604     Br  0.46353109  0.31255508  0.87952485    -0.02910
C1605       C  0.55170404  0.33796509  0.68380338    -0.09540
C1606       C  0.52449002  0.33699605  0.68175071     0.06650
C1607       C  0.50936408  0.33030096  0.64208478    -0.03310
C1608       C  0.52240734  0.32630326  0.60538370    -0.07760
C1609       C  0.54986168  0.32803391  0.60784363     0.05770
C1610       C  0.56391755  0.33271640  0.64753905    -0.02790
Br1611     Br  0.59841587  0.32962766  0.65427131    -0.02480
H1612       H  0.56358097  0.34270486  0.71384253     0.09680
H1613       H  0.51093335  0.32144303  0.57495606     0.07700
Br1614     Br  0.97009598  0.32414046  0.63632368    -0.02910
C1615       C  0.52216632  0.01218689  0.76915536    -0.09540
C1616       C  0.50566047  0.49413291  0.73380656     0.06650
C1617       C  0.52014149  0.48540920  0.70405716    -0.03310
C1618       C  0.54960097  0.49336776  0.71107620    -0.07760
C1619       C  0.56679702  0.51285989  0.74489326     0.05770
C1620       C  0.55275101  0.02282298  0.77377814    -0.02790
Br1621     Br  0.57396393  0.05338213  0.81704171    -0.02480
H1622       H  0.51142831  0.01893060  0.79256144     0.09680
H1623       H  0.55956504  0.48530651  0.68838078     0.07700
Br1624     Br  0.00281236  0.46617326  0.65022175    -0.02910
C1625       C  0.70263668  0.05749669  0.61825923    -0.09540
C1626       C  0.69904982  0.07668152  0.59244740     0.06650
C1627       C  0.67576260  0.08183227  0.60232190    -0.03310
C1628       C  0.65861040  0.06998200  0.63897119    -0.07760
C1629       C  0.66332105  0.05217566  0.66589729     0.05770
C1630       C  0.68486491  0.04504930  0.65438277    -0.02790
Br1631     Br  0.69024157  0.01760890  0.68575145    -0.02480
H1632       H  0.71970659  0.05249418  0.61084404     0.09680
H1633       H  0.64182860  0.07529469  0.64693032     0.07700
Br1634     Br  0.66503166  0.10390463  0.56709848    -0.02910
C1635       C  0.68057496  0.05007263  0.89392056    -0.09540
C1636       C  0.70216688  0.08081345  0.89568567     0.06650
C1637       C  0.70477589  0.09834541  0.86106560    -0.03310
C1638       C  0.68586460  0.08519877  0.82590055    -0.07760
C1639       C  0.66437777  0.05453179  0.82380920     0.05770
C1640       C  0.66157851  0.03684652  0.85834728    -0.02790
Br1641     Br  0.63339955  0.99461659  0.85758988    -0.02480
H1642       H  0.67844768  0.03635048  0.92030053     0.09680
H1643       H  0.68831210  0.09902752  0.79946854     0.07700
Br1644     Br  0.73535464  0.13987281  0.85799745    -0.02910
C1645       C  0.88309810  0.39084488  0.71035381    -0.09540
C1646       C  0.89989754  0.40889712  0.74520245     0.06650
C1647       C  0.89743194  0.39550231  0.78425919    -0.03310
C1648       C  0.88021683  0.36436337  0.78663826    -0.07760
C1649       C  0.86333487  0.34614593  0.75125268     0.05770
C1650       C  0.86359933  0.36030183  0.71352050    -0.02790
Br1651     Br  0.83698335  0.34075604  0.66542819    -0.02480
H1652       H  0.88540459  0.40063514  0.67970560     0.09680
H1653       H  0.88059364  0.35460612  0.81621537     0.07700
Br1654     Br  0.91732079  0.41879217  0.83476952    -0.02910
C1655       C  0.78766627  0.24057360  0.85541158    -0.09540
C1656       C  0.81498580  0.25232543  0.83404752     0.06650
C1657       C  0.83670391  0.24694342  0.84889385    -0.03310
C1658       C  0.83042204  0.22877062  0.88353133    -0.07760
C1659       C  0.80253012  0.21557646  0.90436749     0.05770
C1660       C  0.78129975  0.22255751  0.89068878    -0.02790
Br1661     Br  0.74316017  0.20856549  0.91749855    -0.02480
H1662       H  0.77097460  0.24485209  0.84395981     0.09680
H1663       H  0.84738990  0.22442779  0.89336145     0.07700
Br1664     Br  0.87490290  0.26289916  0.82138456    -0.02910
C1665       C  0.79043061  0.23270172  0.66074060    -0.09540
C1666       C  0.81956635  0.24685102  0.67736382     0.06650
C1667       C  0.84152751  0.24428949  0.65538424    -0.03310
C1668       C  0.83389063  0.22697661  0.61771837    -0.07760
C1669       C  0.80445647  0.21211612  0.60095392     0.05770
C1670       C  0.78266705  0.21566206  0.62278820    -0.02790
Br1671     Br  0.74205491  0.19882971  0.60333418    -0.02480
H1672       H  0.77362628  0.23514851  0.67735747     0.09680
H1673       H  0.85110686  0.22480682  0.60196768     0.07700
Br1674     Br  0.88186733  0.26301885  0.67657455    -0.02910
C1675       C  0.88980947  0.00588387  0.72448061    -0.09540
C1676       C  0.91932963  0.01305173  0.71588587     0.06650
C1677       C  0.93751903  0.04171877  0.69854976    -0.03310
C1678       C  0.93204231  0.06447503  0.70892098    -0.07760
C1679       C  0.90558941  0.05776124  0.73010379     0.05770
C1680       C  0.88327612  0.02765390  0.73432337    -0.02790
Br1681     Br  0.84236276  0.01469573  0.74767714    -0.02480
H1682       H  0.87063982  0.48402599  0.71957098     0.09680
H1683       H  0.94678855  0.08659139  0.69682956     0.07700
Br1684     Br  0.95836363  0.04631740  0.64624614    -0.02910
C1685       C  0.84789253  0.08759246  0.63624145    -0.09540
C1686       C  0.86452555  0.11172099  0.66503543     0.06650
C1687       C  0.86812397  0.13940411  0.65672674    -0.03310
C1688       C  0.85433437  0.14220353  0.62090611    -0.07760
C1689       C  0.83702815  0.11783815  0.59255762     0.05770
C1690       C  0.83444652  0.09042723  0.60013063    -0.02790
Br1691     Br  0.81431854  0.05634054  0.56177539    -0.02480
H1692       H  0.84504128  0.06618008  0.64210648     0.09680
H1693       H  0.85695858  0.16356913  0.61549580     0.07700
Br1694     Br  0.89259402  0.17437372  0.69202063    -0.02910
C1695       C  0.86127821  0.13835617  0.87713107    -0.09540
C1696       C  0.83589653  0.11376899  0.89545224     0.06650
C1697       C  0.82577868  0.08487771  0.87771256    -0.03310
C1698       C  0.84007566  0.08158096  0.84181844    -0.07760
C1699       C  0.86439252  0.10637445  0.82283194     0.05770
C1700       C  0.87537669  0.13485078  0.84132870    -0.02790
Br1701     Br  0.90972196  0.16965487  0.81868165    -0.02480
H1702       H  0.87003601  0.16068483  0.89008777     0.09680
H1703       H  0.83149730  0.05955481  0.82770454     0.07700
Br1704     Br  0.79260681  0.04863925  0.89961083    -0.02910
C1705       C  0.89765440  0.58048112  0.23647051     0.02740
C1706       C  0.88965346  0.58612551  0.27704958    -0.13410
C1707       C  0.87561990  0.60246095  0.28117503     0.00240
C1708       C  0.86890280  0.61229985  0.24442259    -0.11940
C1709       C  0.87674342  0.60668873  0.20388936     0.02730
C1710       C  0.89195921  0.59159348  0.20037759    -0.11360
H1711       H  0.89301568  0.57663725  0.30495586     0.08330
H1712       H  0.85591113  0.62272048  0.24730742     0.05860
H1713       H  0.89698075  0.58612916  0.16903800     0.05700
C1714       C  0.84677270  0.81296319  0.25355518     0.02740
C1715       C  0.84434407  0.79552111  0.21719575    -0.13410
C1716       C  0.82635696  0.76448365  0.21741202     0.00240
C1717       C  0.81417329  0.75031337  0.25566774    -0.11940
C1718       C  0.81981153  0.76720332  0.29344333     0.02730
C1719       C  0.83464359  0.79834048  0.29218624    -0.11360
H1720       H  0.85621388  0.80584391  0.18825950     0.08330
H1721       H  0.80188131  0.72619502  0.25646550     0.05860
H1722       H  0.83746468  0.81084807  0.32156361     0.05700
Fe1723     Fe  0.74949929  0.64679180  0.99921820     1.65780
Fe1724     Fe  0.76694739  0.59293866  0.49470976     1.73250
Fe1725     Fe  0.82283279  0.66698005  0.49529280     1.54410
O1726       O  0.81730252  0.68999381  0.44855234    -0.82060
O1727       O  0.79781748  0.59962860  0.04102575    -0.80370
O1728       O  0.77113590  0.68051925  0.45627083    -0.84570
O1729       O  0.77032347  0.67573647  0.05023087    -0.79430
O1730       O  0.83290638  0.64573506  0.44767206    -0.81200
O1731       O  0.73605585  0.58152730  0.04315805    -0.83940
C1732       C  0.79734411  0.69242705  0.06227875     0.96820
C1733       C  0.79657295  0.69423486  0.43858730     1.04260
O1734       O  0.77974619  0.63550614  0.49628853    -1.12930
O1735       O  0.73448150  0.58167769  0.44836867    -0.75360
O1736       O  0.72578135  0.61867689  0.44867128    -0.78850
O1737       O  0.81872826  0.69237473  0.04306672    -0.79530
C1738       C  0.72187255  0.59440099  0.43330741     0.95730
O1739       O  0.72322567  0.61515091  0.04265718    -0.77490
O1740       O  0.79610984  0.59819239  0.44599850    -0.82690
C1741       C  0.82192308  0.62185394  0.05617516     0.98350
C1742       C  0.82072831  0.61941256  0.43195546     1.04270
O1743       O  0.83341000  0.64788631  0.04219984    -0.78330
C1744       C  0.72048051  0.59181146  0.05706876     1.02570
C1745       C  0.59956939  0.02424889  0.24588397     0.02740
C1746       C  0.61525465  0.52882552  0.28426325    -0.13410
C1747       C  0.64655108  0.54221074  0.28409671     0.00240
C1748       C  0.66181385  0.54858337  0.24514744    -0.11940
C1749       C  0.64644443  0.54264070  0.20649850     0.02730
C1750       C  0.61554892  0.53117404  0.20721458    -0.11360
H1751       H  0.60350204  0.52323413  0.31435387     0.08020
H1752       H  0.68605358  0.55971918  0.24511854     0.05860
H1753       H  0.60411103  0.52838335  0.17732379     0.05700
Fe1754     Fe  0.63749379  0.80139009  0.00858855     1.65780
Fe1755     Fe  0.61657934  0.85254988  0.50657930     1.73250
Fe1756     Fe  0.56289083  0.77754791  0.50692496     1.54420
O1757       O  0.56925547  0.75420526  0.45885706    -0.82060
O1758       O  0.58620181  0.84591013  0.05401051    -0.80370
O1759       O  0.61669723  0.76690405  0.46336830    -0.84570
O1760       O  0.61815459  0.77246617  0.05830018    -0.79430
O1761       O  0.55023885  0.79590240  0.46027123    -0.81200
O1762       O  0.64840223  0.86733398  0.05432271    -0.83940
C1763       C  0.59152050  0.75544284  0.07122497     0.96820
C1764       C  0.59086503  0.75166877  0.44635988     1.04260
O1765       O  0.60564586  0.81052290  0.50736568    -1.12930
O1766       O  0.64853119  0.86377722  0.45924319    -0.75360
O1767       O  0.66025556  0.82900630  0.45888317    -0.78850
O1768       O  0.56933477  0.75455998  0.05377214    -0.79530
C1769       C  0.66269217  0.85219514  0.44398009     0.95730
O1770       O  0.66282773  0.83482005  0.05365757    -0.77490
O1771       O  0.58636427  0.84393833  0.45877234    -0.82690
C1772       C  0.56314070  0.82347823  0.06952911     0.98350
C1773       C  0.56205494  0.82159015  0.44473767     1.04270
O1774       O  0.55181807  0.79707744  0.05498203    -0.78330
C1775       C  0.66460910  0.85836609  0.06839208     1.02570
C1776       C  0.99541398  0.87222414  0.25973735     0.02740
C1777       C  0.00449464  0.86435914  0.22184288    -0.13410
C1778       C  0.01305695  0.84349624  0.22137149     0.00240
C1779       C  0.51462284  0.83186726  0.25995055    -0.11940
C1780       C  0.00949853  0.84210345  0.29890088     0.02730
C1781       C  0.99822818  0.86106615  0.29862730    -0.11360
H1782       H  0.00541063  0.87500961  0.19243335     0.08330
H1783       H  0.52223313  0.81643149  0.26007180     0.05860
H1784       H  0.99262307  0.86767538  0.32846439     0.05700
C1785       C  0.78615305  0.92063127  0.26157495     0.02740
C1786       C  0.77285996  0.91900330  0.22175196    -0.13410
C1787       C  0.74166778  0.90585263  0.21753398     0.00240
C1788       C  0.72425996  0.89683574  0.25490240    -0.11940
C1789       C  0.73745547  0.90003211  0.29502700     0.02730
C1790       C  0.76841093  0.91195764  0.29825316    -0.11360
H1791       H  0.78694188  0.92714649  0.19384059     0.08330
H1792       H  0.70011752  0.88619790  0.25278181     0.05860
H1793       H  0.77824370  0.91271405  0.32881337     0.05700
C1794       C  0.54207146  0.63172344  0.25190416     0.02740
C1795       C  0.55253291  0.64701906  0.29145289    -0.13410
C1796       C  0.56780659  0.67820370  0.29403447     0.00240
C1797       C  0.57444384  0.69441015  0.25679797    -0.11940
C1798       C  0.56513988  0.67975619  0.21685516     0.02730
C1799       C  0.54903835  0.64843525  0.21462955    -0.11360
H1800       H  0.54809262  0.63478643  0.32044829     0.08330
H1801       H  0.58576896  0.71848648  0.25912819     0.05860
H1802       H  0.54141600  0.63709336  0.18381020     0.05700
C1803       C  0.93075975  0.99191135  0.22486829     0.01900
C1804       C  0.91074072  0.96119091  0.23634957     0.01900
C1805       C  0.92132095  0.94144222  0.23858849     0.01900
C1806       C  0.95207196  0.95199329  0.23416414     0.01900
C1807       C  0.97290904  0.98297546  0.23009559     0.01900
C1808       C  0.96264793  0.50312579  0.22654331     0.01900
C1809       C  0.98067946  0.55027335  0.26903915    -0.09540
C1810       C  0.98503185  0.53593948  0.23380731     0.06650
C1811       C  0.51021570  0.55320790  0.20734613    -0.03310
C1812       C  0.52929217  0.58378794  0.21576603    -0.07760
C1813       C  0.52344796  0.59846646  0.24884777     0.05770
C1814       C  0.49866978  0.58117514  0.27578393    -0.02790
Br1815     Br  0.98524935  0.59801437  0.31883998    -0.02480
H1816       H  0.96180838  0.53748344  0.28997441     0.09680
H1817       H  0.54820524  0.59649752  0.19486104     0.07700
Br1818     Br  0.51815014  0.53832016  0.15563017    -0.02910
C1819       C  0.83951769  0.94845188  0.29175768    -0.09540
C1820       C  0.81757843  0.92773662  0.26268620     0.06650
C1821       C  0.82629055  0.91441671  0.23164928    -0.03310
C1822       C  0.85615140  0.92802457  0.22050618    -0.07760
C1823       C  0.87868640  0.94864722  0.24846856     0.05770
C1824       C  0.86990640  0.95732319  0.28642751    -0.02790
Br1825     Br  0.89898361  0.48458653  0.32755890    -0.02480
H1826       H  0.83325785  0.95799361  0.31774455     0.09680
H1827       H  0.86144065  0.92198999  0.19017151     0.07700
Br1828     Br  0.79963127  0.87371499  0.21435202    -0.02910
C1829       C  0.97993242  0.93489057  0.27726706    -0.09540
C1830       C  0.96269664  0.93094478  0.24079360     0.06650
C1831       C  0.95567459  0.90693591  0.21210796    -0.03310
C1832       C  0.96444612  0.88707498  0.22148045    -0.07760
C1833       C  0.98306155  0.89187289  0.25660556     0.05770
C1834       C  0.99123216  0.91660484  0.28436861    -0.02790
Br1835     Br  0.52031681  0.92914999  0.32931386    -0.02480
H1836       H  0.48562136  0.95313067  0.29966161     0.09680
H1837       H  0.95783788  0.86837905  0.19953042     0.07700
Br1838     Br  0.93756933  0.90131194  0.15692925    -0.02910
C1839       C  0.55595697  0.71243889  0.11590125    -0.09540
C1840       C  0.58570548  0.73562785  0.10787814     0.06650
C1841       C  0.60864677  0.73942163  0.13575298    -0.03310
C1842       C  0.60142549  0.72044619  0.17005590    -0.07760
C1843       C  0.57171870  0.69760267  0.17800639     0.05770
C1844       C  0.54883722  0.69373000  0.15049181    -0.02790
Br1845     Br  0.50715866  0.66493928  0.16046215    -0.02480
H1846       H  0.53783627  0.70899608  0.09551800     0.09680
H1847       H  0.61918604  0.72387522  0.19126036     0.07700
Br1848     Br  0.65015237  0.77076204  0.13130253    -0.02910
C1849       C  0.55679004  0.71570438  0.39013613    -0.09540
C1850       C  0.58533033  0.73058353  0.40975386     0.06650
C1851       C  0.60755765  0.72574482  0.39232267    -0.03310
C1852       C  0.60117469  0.70763556  0.35542105    -0.07760
C1853       C  0.57301680  0.69395337  0.33559452     0.05770
C1854       C  0.55064299  0.69776213  0.35350651    -0.02790
Br1855     Br  0.51177366  0.68033227  0.32743592    -0.02480
H1856       H  0.53915960  0.71863026  0.40244642     0.09680
H1857       H  0.61847976  0.70475751  0.34153795     0.07700
Br1858     Br  0.64720554  0.74312490  0.41584109    -0.02910
C1859       C  0.68215924  0.84597716  0.37460738    -0.09540
C1860       C  0.68214034  0.86534524  0.40629034     0.06650
C1861       C  0.70079683  0.89642862  0.40119205    -0.03310
C1862       C  0.71879985  0.90744093  0.36481615    -0.07760
C1863       C  0.71832338  0.88794297  0.33305836     0.05770
C1864       C  0.69991295  0.85699766  0.33822797    -0.02790
Br1865     Br  0.69903650  0.82893251  0.29704911    -0.02480
H1866       H  0.66808429  0.82207194  0.37797898     0.09680
H1867       H  0.73324306  0.93129242  0.36128205     0.07700
Br1868     Br  0.70407973  0.92482353  0.44383885    -0.02910
C1869       C  0.71179948  0.87306270  0.10568876    -0.09540
C1870       C  0.68675567  0.87564719  0.10315519     0.06650
C1871       C  0.68357505  0.89361597  0.13448854    -0.03310
C1872       C  0.70266449  0.90448201  0.17035021    -0.07760
C1873       C  0.72626373  0.89944080  0.17486920     0.05770
C1874       C  0.73185648  0.88538843  0.13989822    -0.02790
Br1875     Br  0.76541435  0.88097942  0.13414726    -0.02480
H1876       H  0.71583870  0.86106616  0.08060327     0.09680
H1877       H  0.69871304  0.91659883  0.19531074     0.07700
Br1878     Br  0.65386286  0.90409891  0.13117453    -0.02910
C1879       C  0.55162296  0.84435247  0.33676240    -0.09540
C1880       C  0.52172498  0.83710693  0.33812208     0.06650
C1881       C  0.50474970  0.82418343  0.37517105    -0.03310
C1882       C  0.51785515  0.81862651  0.40965221    -0.07760
C1883       C  0.54778735  0.82596228  0.40779571     0.05770
C1884       C  0.56452204  0.83866751  0.37069319    -0.02790
Br1885     Br  0.60456985  0.84691555  0.36333063    -0.02480
H1886       H  0.56506380  0.85420691  0.30858454     0.09680
H1887       H  0.50475780  0.80880895  0.43807885     0.07700
Br1888     Br  0.46352558  0.81254921  0.37952030    -0.02910
C1889       C  0.55170140  0.83796331  0.18380114    -0.09540
C1890       C  0.52448778  0.83699497  0.18174699     0.06650
C1891       C  0.50936338  0.83030163  0.14208006    -0.03310
C1892       C  0.52240758  0.82630454  0.10537965    -0.07760
C1893       C  0.54986127  0.82803398  0.10784124     0.05770
C1894       C  0.56391574  0.83271506  0.14753743    -0.02790
Br1895     Br  0.59841288  0.82962458  0.15427156    -0.02480
H1896       H  0.56357722  0.84270188  0.21384107     0.09680
H1897       H  0.51093462  0.82144528  0.07495131     0.07700
Br1898     Br  0.97009759  0.82413881  0.13631671    -0.02910
C1899       C  0.52216412  0.51217688  0.26915630    -0.09540
C1900       C  0.50566303  0.99413160  0.23380775     0.06650
C1901       C  0.52014414  0.98540820  0.20405797    -0.03310
C1902       C  0.54960393  0.99336715  0.21107630    -0.07760
C1903       C  0.56680027  0.01285920  0.24489334     0.05770
C1904       C  0.55274868  0.52281313  0.27377985    -0.02790
Br1905     Br  0.57396058  0.55337175  0.31704453    -0.02480
H1906       H  0.51142566  0.51892002  0.29256243     0.09680
H1907       H  0.55956799  0.98530628  0.18838026     0.07700
Br1908     Br  0.00281406  0.96617509  0.15022211    -0.02910
C1909       C  0.70263487  0.55749624  0.11825807    -0.09540
C1910       C  0.69904719  0.57668118  0.09244765     0.06650
C1911       C  0.67576005  0.58183164  0.10232405    -0.03310
C1912       C  0.65860831  0.56998045  0.13897350    -0.07760
C1913       C  0.66331966  0.55217379  0.16589793     0.05770
C1914       C  0.68486378  0.54504818  0.15438185    -0.02790
Br1915     Br  0.69024173  0.51760796  0.18574880    -0.02480
H1916       H  0.71970489  0.55249411  0.11084157     0.09680
H1917       H  0.64182626  0.57529255  0.14693404     0.07700
Br1918     Br  0.66502870  0.60390470  0.06710296    -0.02910
C1919       C  0.68057161  0.55007030  0.39392332    -0.09540
C1920       C  0.70216297  0.58081127  0.39568817     0.06650
C1921       C  0.70477278  0.59834254  0.36106668    -0.03310
C1922       C  0.68586253  0.58519509  0.32590083    -0.07760
C1923       C  0.66437632  0.55452793  0.32380976     0.05770
C1924       C  0.66157649  0.53684333  0.35834906    -0.02790
Br1925     Br  0.63339893  0.49461311  0.35759211    -0.02480
H1926       H  0.67844394  0.53634859  0.42030411     0.09680
H1927       H  0.68831039  0.59902337  0.29946799     0.07700
Br1928     Br  0.73535154  0.63986986  0.35799705    -0.02910
C1929       C  0.88309917  0.89084465  0.21035525    -0.09540
C1930       C  0.89989928  0.90889685  0.24520353     0.06650
C1931       C  0.89743466  0.89550190  0.28425982    -0.03310
C1932       C  0.88021994  0.86436295  0.28663868    -0.07760
C1933       C  0.86333770  0.84614548  0.25125332     0.05770
C1934       C  0.86360143  0.86030136  0.21352146    -0.02790
Br1935     Br  0.83698632  0.84075507  0.16542840    -0.02480
H1936       H  0.88540489  0.90063494  0.17970736     0.09680
H1937       H  0.88059728  0.85460567  0.31621547     0.07700
Br1938     Br  0.91732413  0.91879157  0.33476999    -0.02910
C1939       C  0.78766718  0.74057184  0.35541089    -0.09540
C1940       C  0.81498746  0.75232483  0.33404851     0.06650
C1941       C  0.83670548  0.74694297  0.34889565    -0.03310
C1942       C  0.83042278  0.72876904  0.38353199    -0.07760
C1943       C  0.80253009  0.71557358  0.40436625     0.05770
C1944       C  0.78129984  0.72255470  0.39068707    -0.02790
Br1945     Br  0.74315900  0.70856085  0.41749394    -0.02480
H1946       H  0.77097551  0.74485009  0.34395839     0.09680
H1947       H  0.84739072  0.72442653  0.39336285     0.07700
Br1948     Br  0.87490540  0.76290021  0.32138860    -0.02910
C1949       C  0.79043173  0.73270144  0.16074242    -0.09540
C1950       C  0.81956766  0.74685031  0.17736481     0.06650
C1951       C  0.84152821  0.74428820  0.15538442    -0.03310
C1952       C  0.83389052  0.72697517  0.11771861    -0.07760
C1953       C  0.80445614  0.71211511  0.10095501     0.05770
C1954       C  0.78266736  0.71566165  0.12279009    -0.02790
Br1955     Br  0.74205506  0.69882998  0.10333730    -0.02480
H1956       H  0.77362787  0.73514867  0.17735990     0.09680
H1957       H  0.85110628  0.72480493  0.10196726     0.07700
Br1958     Br  0.88186826  0.76301694  0.17657358    -0.02910
C1959       C  0.88980411  0.50586843  0.22438300    -0.09540
C1960       C  0.91933780  0.51305402  0.21585517     0.06650
C1961       C  0.93753850  0.54173572  0.19856907    -0.03310
C1962       C  0.93204817  0.56447993  0.20895790    -0.07760
C1963       C  0.90557162  0.55774083  0.23009058     0.05770
C1964       C  0.88325539  0.52762677  0.23423828    -0.02790
Br1965     Br  0.84232898  0.51465302  0.24752191    -0.02480
H1966       H  0.87064015  0.98402981  0.21959725     0.09680
H1967       H  0.94680192  0.58660777  0.19690806     0.07700
Br1968     Br  0.95839802  0.54636988  0.14626925    -0.02910
C1969       C  0.84787602  0.58757728  0.13623645    -0.09540
C1970       C  0.86450682  0.61170273  0.16503582     0.06650
C1971       C  0.86810822  0.63938765  0.15673122    -0.03310
C1972       C  0.85432314  0.64219167  0.12090905    -0.07760
C1973       C  0.83701884  0.61782917  0.09255537     0.05770
C1974       C  0.83443485  0.59041669  0.10012415    -0.02790
Br1975     Br  0.81431019  0.55633395  0.06176128    -0.02480
H1976       H  0.84502297  0.56616372  0.14209815     0.09680
H1977       H  0.85694910  0.66355837  0.11550175     0.07700
Br1978     Br  0.89257654  0.67435345  0.19203267    -0.02910
C1979       C  0.86126567  0.63833532  0.37712930    -0.09540
C1980       C  0.83588324  0.61375160  0.39545451     0.06650
C1981       C  0.82576039  0.58485811  0.37771894    -0.03310
C1982       C  0.84005266  0.58155612  0.34182344    -0.07760
C1983       C  0.86436975  0.60634639  0.32283214     0.05770
C1984       C  0.87535971  0.63482467  0.34132593    -0.02790
Br1985     Br  0.90970695  0.66962448  0.31867352    -0.02480
H1986       H  0.87002733  0.66066529  0.39008336     0.09680
H1987       H  0.83147030  0.55952855  0.32771214     0.07700
Br1988     Br  0.79258779  0.54862325  0.39962471    -0.02910
C1989       C  0.89768466  0.58051225  0.73647617     0.02740
C1990       C  0.88968933  0.58616502  0.77705473    -0.13410
C1991       C  0.87565041  0.60249541  0.78117609     0.00240
C1992       C  0.86892960  0.61232851  0.74442119    -0.11940
C1993       C  0.87676866  0.60671383  0.70388893     0.02730
C1994       C  0.89198531  0.59161906  0.70038016    -0.11360
H1995       H  0.89305402  0.57668095  0.80496389     0.08330
H1996       H  0.85593470  0.62274583  0.74730340     0.05860
H1997       H  0.89700195  0.58614890  0.66904127     0.05700
C1998       C  0.84677325  0.81296458  0.75355143     0.02740
C1999       C  0.84434513  0.79552310  0.71719135    -0.13410
C2000       C  0.82635925  0.76448552  0.71740713     0.00240
C2001       C  0.81417617  0.75031469  0.75566277    -0.11940
C2002       C  0.81981353  0.76720415  0.79343870     0.02730
C2003       C  0.83464439  0.79834124  0.79218216    -0.11360
H2004       H  0.85621443  0.80584645  0.68825503     0.08330
H2005       H  0.80188501  0.72619636  0.75646010     0.05860
H2006       H  0.83746477  0.81084834  0.82155978     0.05700
Fe2007     Fe  0.74949883  0.64678898  0.49922065     1.65780
Fe2008     Fe  0.76694899  0.59294194  0.99469847     1.73250
Fe2009     Fe  0.82283409  0.66698387  0.99529553     1.54410
O2010       O  0.81730563  0.69000235  0.94856007    -0.82060
O2011       O  0.79781942  0.59962894  0.54103517    -0.80370
O2012       O  0.77113505  0.68051985  0.95626496    -0.84570
O2013       O  0.77032283  0.67573159  0.55023489    -0.79430
O2014       O  0.83291006  0.64574411  0.94767090    -0.81200
O2015       O  0.73605780  0.58152818  0.54317163    -0.83940
C2016       C  0.79734455  0.69242590  0.56227638     0.96820
C2017       C  0.79657437  0.69423933  0.93858802     1.04260
O2018       O  0.77974722  0.63550947  0.99628464    -1.12930
O2019       O  0.73448569  0.58168348  0.94835581    -0.75360
O2020       O  0.72577904  0.61867833  0.94867128    -0.78850
O2021       O  0.81872852  0.69237575  0.54305949    -0.79530
C2022       C  0.72187276  0.59440477  0.93330189     0.95730
O2023       O  0.72322208  0.61514703  0.54265664    -0.77490
O2024       O  0.79611559  0.59820052  0.94598842    -0.82690
C2025       C  0.82192568  0.62185611  0.55618041     0.98350
C2026       C  0.82073448  0.61942323  0.93194949     1.04270
O2027       O  0.83341067  0.64788710  0.54220088    -0.78330
C2028       C  0.72047933  0.59181038  0.55707502     1.02570
C2029       C  0.59957149  0.02425321  0.74588299     0.02740
C2030       C  0.61524980  0.52882862  0.78426476    -0.13410
C2031       C  0.64654602  0.54221291  0.78409856     0.00240
C2032       C  0.66180902  0.54858430  0.74514982    -0.11940
C2033       C  0.64643995  0.54264128  0.70650069     0.02730
C2034       C  0.61554474  0.53117568  0.70721590    -0.11360
H2035       H  0.60349705  0.52323820  0.81435530     0.08020
H2036       H  0.68604873  0.55971969  0.74512144     0.05860
H2037       H  0.60410726  0.52838494  0.67732469     0.05700
Fe2038     Fe  0.63749655  0.80139118  0.50858907     1.65780
Fe2039     Fe  0.61657613  0.85254847  0.00657960     1.73250
Fe2040     Fe  0.56288784  0.77754642  0.00692792     1.54420
O2041       O  0.56925172  0.75420326  0.95886066    -0.82060
O2042       O  0.58620503  0.84591117  0.55401040    -0.80370
O2043       O  0.61669408  0.76690325  0.96336737    -0.84570
O2044       O  0.61815673  0.77246780  0.55830104    -0.79430
O2045       O  0.55023527  0.79590046  0.96027355    -0.81200
O2046       O  0.64840561  0.86733534  0.55432245    -0.83940
C2047       C  0.59152215  0.75544420  0.57122375     0.96820
C2048       C  0.59086114  0.75166728  0.94636125     1.04260
O2049       O  0.60564288  0.81052155  0.00736664    -1.12930
O2050       O  0.64852837  0.86377637  0.95924378    -0.75360
O2051       O  0.66025280  0.82900559  0.95888286    -0.78850
O2052       O  0.56933699  0.75456109  0.55376867    -0.79530
C2053       C  0.66268971  0.85219474  0.94398052     0.95730
O2054       O  0.66283051  0.83482109  0.55365803    -0.77490
O2055       O  0.58636113  0.84393621  0.95877246    -0.82690
C2056       C  0.56314337  0.82347913  0.56952777     0.98350
C2057       C  0.56205162  0.82158790  0.94473853     1.04270
O2058       O  0.55182045  0.79707855  0.55497931    -0.78330
C2059       C  0.66461215  0.85836724  0.56839240     1.02570
C2060       C  0.99541484  0.87222489  0.75973913     0.02740
C2061       C  0.00449512  0.86435943  0.72184461    -0.13410
C2062       C  0.01305694  0.84349610  0.72137312     0.00240
C2063       C  0.51462412  0.83186802  0.75994853    -0.11940
C2064       C  0.00949969  0.84210433  0.79890285     0.02730
C2065       C  0.99822951  0.86106723  0.79862923    -0.11360
H2066       H  0.00541103  0.87500977  0.69243501     0.08330
H2067       H  0.52223412  0.81643201  0.76006986     0.05860
H2068       H  0.99262467  0.86767665  0.82846636     0.05700
C2069       C  0.78615470  0.92063710  0.76157914     0.02740
C2070       C  0.77286105  0.91900622  0.72175541    -0.13410
C2071       C  0.74166869  0.90585441  0.71753752     0.00240
C2072       C  0.72426096  0.89683823  0.75490593    -0.11940
C2073       C  0.73745667  0.90003619  0.79503091     0.02730
C2074       C  0.76841259  0.91196382  0.79825747    -0.11360
H2075       H  0.78694255  0.92714762  0.69384330     0.08330
H2076       H  0.70011841  0.88619941  0.75278492     0.05860
H2077       H  0.77824580  0.91272178  0.82881801     0.05700
C2078       C  0.54205809  0.63172393  0.75190242     0.02740
C2079       C  0.55251973  0.64701820  0.79145188    -0.13410
C2080       C  0.56779793  0.67820306  0.79403448     0.00240
C2081       C  0.57443854  0.69441067  0.75679857    -0.11940
C2082       C  0.56513360  0.67975764  0.71685532     0.02730
C2083       C  0.54902841  0.64843675  0.71462853    -0.11360
H2084       H  0.54807647  0.63478451  0.82044688     0.08330
H2085       H  0.58576676  0.71848724  0.75912959     0.05860
H2086       H  0.54140592  0.63709571  0.68380865     0.05700
C2087       C  0.93076189  0.99191337  0.72486542     0.01900
C2088       C  0.91074196  0.96119336  0.73634855     0.01900
C2089       C  0.92132138  0.94144379  0.73858754     0.01900
C2090       C  0.95207232  0.95199401  0.73416370     0.01900
C2091       C  0.97291001  0.98297605  0.73009530     0.01900
C2092       C  0.96263957  0.50312414  0.72655088     0.01900
C2093       C  0.98066537  0.55027460  0.76903691    -0.09540
C2094       C  0.98502022  0.53593949  0.73380883     0.06650
C2095       C  0.51020240  0.55320850  0.70734552    -0.03310
C2096       C  0.52927736  0.58378874  0.71576360    -0.07760
C2097       C  0.52343255  0.59846731  0.74884419     0.05770
C2098       C  0.49865348  0.58117648  0.77577889    -0.02790
Br2099     Br  0.98523241  0.59801713  0.81883099    -0.02480
H2100       H  0.96179459  0.53748485  0.78997303     0.09680
H2101       H  0.54819101  0.59649822  0.69485946     0.07700
Br2102     Br  0.51814255  0.53832141  0.65563379    -0.02910
C2103       C  0.83952140  0.94846462  0.79175489    -0.09540
C2104       C  0.81758030  0.92774314  0.76269085     0.06650
C2105       C  0.82629078  0.91441793  0.73166036    -0.03310
C2106       C  0.85615096  0.92802395  0.72051464    -0.07760
C2107       C  0.87868797  0.94865166  0.74847048     0.05770
C2108       C  0.86991001  0.95733549  0.78642391    -0.02790
Br2109     Br  0.89896187  0.48451563  0.82760270    -0.02480
H2110       H  0.83326287  0.95801095  0.81773698     0.09680
H2111       H  0.86143778  0.92198554  0.69018139     0.07700
Br2112     Br  0.79963024  0.87371422  0.71437330    -0.02910
C2113       C  0.97993173  0.93489065  0.77726826    -0.09540
C2114       C  0.96269643  0.93094498  0.74079422     0.06650
C2115       C  0.95567501  0.90693623  0.71210864    -0.03310
C2116       C  0.96444675  0.88707547  0.72148161    -0.07760
C2117       C  0.98306201  0.89187346  0.75660705     0.05770
C2118       C  0.99123186  0.91660522  0.78437019    -0.02790
Br2119     Br  0.52032083  0.92915207  0.82931090    -0.02480
H2120       H  0.48562636  0.95313403  0.79965922     0.09680
H2121       H  0.95783885  0.86837963  0.69953157     0.07700
Br2122     Br  0.93757067  0.90131223  0.65692923    -0.02910
C2123       C  0.55595607  0.71244238  0.61590042    -0.09540
C2124       C  0.58570548  0.73562928  0.60787737     0.06650
C2125       C  0.60864564  0.73942141  0.63575309    -0.03310
C2126       C  0.60142233  0.72044621  0.67005679    -0.07760
C2127       C  0.57171462  0.69760475  0.67800704     0.05770
C2128       C  0.54883429  0.69373396  0.65049176    -0.02790
Br2129     Br  0.50715468  0.66494684  0.66046204    -0.02480
H2130       H  0.53783615  0.70900095  0.59551666     0.09680
H2131       H  0.61918200  0.72387367  0.69126180     0.07700
Br2132     Br  0.65015235  0.77075894  0.63130247    -0.02910
C2133       C  0.55678490  0.71570485  0.89013727    -0.09540
C2134       C  0.58532513  0.73058198  0.90975501     0.06650
C2135       C  0.60755109  0.72574140  0.89232352    -0.03310
C2136       C  0.60116699  0.70763244  0.85542135    -0.07760
C2137       C  0.57300923  0.69395236  0.83559483     0.05770
C2138       C  0.55063669  0.69776289  0.85350721    -0.02790
Br2139     Br  0.51176785  0.68033640  0.82743630    -0.02480
H2140       H  0.53915547  0.71863228  0.90244771     0.09680
H2141       H  0.61847103  0.70475290  0.84153792     0.07700
Br2142     Br  0.64719828  0.74311812  0.91584281    -0.02910
C2143       C  0.68215993  0.84597888  0.87460906    -0.09540
C2144       C  0.68213898  0.86534599  0.90629183     0.06650
C2145       C  0.70079480  0.89642958  0.90119456    -0.03310
C2146       C  0.71879889  0.90744300  0.86481974    -0.07760
C2147       C  0.71832429  0.88794599  0.83306199     0.05770
C2148       C  0.69991475  0.85700047  0.83823078    -0.02790
Br2149     Br  0.69904094  0.82893646  0.79705229    -0.02480
H2150       H  0.66808568  0.82207353  0.87797986     0.09680
H2151       H  0.73324134  0.93129464  0.86128636     0.07700
Br2152     Br  0.70407534  0.92482346  0.94384135    -0.02910
C2153       C  0.71180023  0.87306044  0.60569388    -0.09540
C2154       C  0.68675828  0.87564787  0.60315647     0.06650
C2155       C  0.68357850  0.89361838  0.63448783    -0.03310
C2156       C  0.70266710  0.90448422  0.67035047    -0.07760
C2157       C  0.72626456  0.89944077  0.67487268     0.05770
C2158       C  0.73185603  0.88538524  0.63990485    -0.02790
Br2159     Br  0.76540977  0.88096891  0.63416271    -0.02480
H2160       H  0.71583862  0.86106183  0.58061076     0.09680
H2161       H  0.69871643  0.91660271  0.69530923     0.07700
Br2162     Br  0.65386839  0.90410388  0.63117004    -0.02910
C2163       C  0.55162212  0.84435060  0.83676197    -0.09540
C2164       C  0.52172456  0.83710632  0.83812052     0.06650
C2165       C  0.50474840  0.82418286  0.87516892    -0.03310
C2166       C  0.51785267  0.81862501  0.90965073    -0.07760
C2167       C  0.54778456  0.82595971  0.90779542     0.05770
C2168       C  0.56452000  0.83866465  0.87069328    -0.02790
Br2169     Br  0.60456742  0.84691135  0.86333207    -0.02480
H2170       H  0.56506366  0.85420495  0.80858462     0.09680
H2171       H  0.50475472  0.80880776  0.93807703     0.07700
Br2172     Br  0.46352463  0.81255007  0.87951658    -0.02910
C2173       C  0.55170390  0.83796519  0.68379953    -0.09540
C2174       C  0.52448978  0.83699582  0.68174518     0.06650
C2175       C  0.50936507  0.83030141  0.64207840    -0.03310
C2176       C  0.52240927  0.82630395  0.60537823    -0.07760
C2177       C  0.54986352  0.82803451  0.60783987     0.05770
C2178       C  0.56391856  0.83271709  0.64753601    -0.02790
Br2179     Br  0.59841723  0.82962922  0.65427038    -0.02480
H2180       H  0.56357990  0.84270461  0.71383946     0.09680
H2181       H  0.51093603  0.82144387  0.57494999     0.07700
Br2182     Br  0.97009686  0.82414062  0.63631872    -0.02910
C2183       C  0.52216146  0.51218384  0.76915456    -0.09540
C2184       C  0.50566485  0.99413607  0.73380744     0.06650
C2185       C  0.52014607  0.98541305  0.70405716    -0.03310
C2186       C  0.54960599  0.99337224  0.71107499    -0.07760
C2187       C  0.56680243  0.01286408  0.74489214     0.05770
C2188       C  0.55274585  0.52281962  0.77377815    -0.02790
Br2189     Br  0.57395873  0.55337949  0.81704087    -0.02480
H2190       H  0.51142331  0.51892783  0.79256000     0.09680
H2191       H  0.55956997  0.98531144  0.68837869     0.07700
Br2192     Br  0.00281480  0.96617558  0.65022190    -0.02910
C2193       C  0.70263164  0.55749553  0.61826416    -0.09540
C2194       C  0.69904515  0.57668093  0.59245297     0.06650
C2195       C  0.67575801  0.58183177  0.60232721    -0.03310
C2196       C  0.65860524  0.56998061  0.63897568    -0.07760
C2197       C  0.66331551  0.55217358  0.66590079     0.05770
C2198       C  0.68485941  0.54504740  0.65438666    -0.02790
Br2199     Br  0.69023571  0.51760648  0.68575469    -0.02480
H2200       H  0.71970148  0.55249289  0.61084918     0.09680
H2201       H  0.64182335  0.57529315  0.64693505     0.07700
Br2202     Br  0.66502807  0.60390553  0.56710517    -0.02910
C2203       C  0.68057072  0.55007383  0.89392110    -0.09540
C2204       C  0.70216098  0.58081509  0.89568529     0.06650
C2205       C  0.70476757  0.59834644  0.86106588    -0.03310
C2206       C  0.68585580  0.58519849  0.82590173    -0.07760
C2207       C  0.66437118  0.55453093  0.82381097     0.05770
C2208       C  0.66157391  0.53684643  0.85834878    -0.02790
Br2209     Br  0.63339758  0.49461597  0.85759191    -0.02480
H2210       H  0.67844541  0.53635225  0.92030076     0.09680
H2211       H  0.68830150  0.59902651  0.79946967     0.07700
Br2212     Br  0.73534406  0.63987451  0.85799679    -0.02910
C2213       C  0.88310052  0.89084637  0.71035289    -0.09540
C2214       C  0.89989932  0.90889848  0.74520205     0.06650
C2215       C  0.89743366  0.89550328  0.78425846    -0.03310
C2216       C  0.88021916  0.86436424  0.78663671    -0.07760
C2217       C  0.86333771  0.84614696  0.75125066     0.05770
C2218       C  0.86360205  0.86030318  0.71351891    -0.02790
Br2219     Br  0.83698584  0.84075770  0.66542676    -0.02480
H2220       H  0.88540702  0.90063692  0.67970489     0.09680
H2221       H  0.88059605  0.85460681  0.81621359     0.07700
Br2222     Br  0.91732181  0.91879284  0.83476930    -0.02910
C2223       C  0.78767023  0.74057585  0.85540895    -0.09540
C2224       C  0.81498920  0.75232552  0.83404393     0.06650
C2225       C  0.83670612  0.74694177  0.84889013    -0.03310
C2226       C  0.83042349  0.72876923  0.88352822    -0.07760
C2227       C  0.80253201  0.71557713  0.90436531     0.05770
C2228       C  0.78130301  0.72256010  0.89068682    -0.02790
Br2229     Br  0.74316466  0.70857166  0.91749840    -0.02480
H2230       H  0.77097957  0.74485588  0.84395759     0.09680
H2231       H  0.84739039  0.72442497  0.89335816     0.07700
Br2232     Br  0.87490467  0.76289530  0.82138039    -0.02910
C2233       C  0.79043440  0.73270449  0.66073648    -0.09540
C2234       C  0.81957007  0.74685247  0.67735950     0.06650
C2235       C  0.84153019  0.74428916  0.65537987    -0.03310
C2236       C  0.83389210  0.72697522  0.61771470    -0.07760
C2237       C  0.80445779  0.71211565  0.60095103     0.05770
C2238       C  0.78266973  0.71566407  0.62278473    -0.02790
Br2239     Br  0.74205824  0.69883482  0.60332990    -0.02480
H2240       H  0.77363095  0.73515283  0.67735307     0.09680
H2241       H  0.85110727  0.72480361  0.60196414     0.07700
Br2242     Br  0.88187007  0.76301753  0.67656939    -0.02910
C2243       C  0.88980895  0.50588451  0.72448798    -0.09540
C2244       C  0.91932761  0.51305030  0.71588629     0.06650
C2245       C  0.93751614  0.54171596  0.69854560    -0.03310
C2246       C  0.93204124  0.56447361  0.70891587    -0.07760
C2247       C  0.90559090  0.55776252  0.73010416     0.05770
C2248       C  0.88327758  0.52765589  0.73433039    -0.02790
Br2249     Br  0.84236567  0.51469964  0.74769154    -0.02480
H2250       H  0.87064158  0.98402489  0.71955989     0.09680
H2251       H  0.94678690  0.58658888  0.69682061     0.07700
Br2252     Br  0.95835930  0.54631122  0.64624158    -0.02910
C2253       C  0.84789369  0.58759244  0.63624222    -0.09540
C2254       C  0.86452696  0.61172160  0.66503515     0.06650
C2255       C  0.86812391  0.63940407  0.65672644    -0.03310
C2256       C  0.85433235  0.64220215  0.62090712    -0.07760
C2257       C  0.83702568  0.61783606  0.59255992     0.05770
C2258       C  0.83444579  0.59042592  0.60013257    -0.02790
Br2259     Br  0.81431776  0.55633874  0.56177822    -0.02480
H2260       H  0.84504357  0.56618055  0.64210731     0.09680
H2261       H  0.85695543  0.66356726  0.61549680     0.07700
Br2262     Br  0.89259439  0.67437452  0.69201864    -0.02910
C2263       C  0.86127636  0.63835597  0.87712903    -0.09540
C2264       C  0.83589410  0.61376832  0.89544840     0.06650
C2265       C  0.82577712  0.58487740  0.87770821    -0.03310
C2266       C  0.84007565  0.58158141  0.84181538    -0.07760
C2267       C  0.86439323  0.60637538  0.82283075     0.05770
C2268       C  0.87537637  0.63485137  0.84132795    -0.02790
Br2269     Br  0.90972210  0.66965609  0.81868302    -0.02480
H2270       H  0.87003347  0.66068442  0.89008612     0.09680
H2271       H  0.83149796  0.55955552  0.82770095     0.07700
Br2272     Br  0.79260468  0.54863856  0.89960453    -0.02910
loop_ 
_geom_bond_atom_site_label_1 
_geom_bond_atom_site_label_2 
_geom_bond_distance 
_geom_bond_site_symmetry_2 
_ccdc_geom_bond_type 
C1            C2   1.408       .  A
C1            C6   1.398       .  A
C1          C259   1.476       .  S
C2            C3   1.406       .  A
C2            H7   1.084       .  S
C3            C4   1.403       .  A
C3          C279   1.481       .  S
C4            C5   1.403       .  A
C4            H8   1.083       .  S
C5            C6   1.400       .  A
C5          C266   1.480       .  S
C6            H9   1.085       .  S
C10          C11   1.408       .  A
C10          C15   1.411       .  A
C10         C229   1.495       .  S
C11          C12   1.395       .  A
C11          H16   1.081       .  S
C12          C13   1.393       .  A
C12         C246   1.470       .  S
C13          C14   1.397       .  A
C13          H17   1.084       .  S
C14          C15   1.403       .  A
C14         C236   1.467       .  S
C15          H18   1.082       .  S
Fe19         O35   2.053   1_556  S
Fe19         O25   2.054   1_556  S
Fe19        O316   2.053       .  S
Fe19        O308   2.064       .  S
Fe19        O314   1.973       .  S
Fe20         O31   2.076       .  S
Fe20         O36   2.069       .  S
Fe20        O307   2.070       .  S
Fe20        O311   2.066       .  S
Fe20         O30   1.980       .  S
Fe21         O26   2.070       .  S
Fe21         O22   2.054       .  S
Fe21        O323   2.051       .  S
Fe21        O317   2.067       .  S
Fe21         O30   1.976       .  S
O22          C29   1.268       .  A
O23        Fe304   2.070   1_554  S
O23          C37   1.270       .  A
O24        Fe303   2.064       .  S
O24          C29   1.265       .  A
O25          C28   1.266       .  A
O26          C38   1.270       .  A
O27        Fe304   2.066   1_554  S
O27          C40   1.267       .  A
C28         C249   1.489       .  S
C28          O33   1.270       .  A
C29         C239   1.490       .  S
O30        Fe303   1.973       .  S
O31          C34   1.272       .  A
O32        Fe303   2.053       .  S
O32          C34   1.269       .  A
O33        Fe305   2.067   1_554  S
C34         C216   1.473       .  S
O35          C40   1.264       .  A
O36          C38   1.267       .  A
C37         C269   1.481       .  S
C37          O39   1.267       .  A
C38         C276   1.498       .  S
O39        Fe305   2.051   1_554  S
C40         C206   1.487       .  S
C41         C610   1.408       .  A
C41         C614   1.410       .  A
C41         C199   1.493       .  S
C42          C43   1.404       .  A
C42         C609   1.408       .  A
C42          H47   1.082       .  S
C43          C44   1.402       .  A
C43         C219   1.478       .  S
C44          C45   1.397       .  A
C44          H48   1.084       .  S
C45          C46   1.400       .  A
C45         C209   1.484       .  S
C46         C609   1.410       .  A
C46          H49   1.083       .  S
Fe50         O66   2.072       .  S
Fe50         O56   2.067       .  S
Fe50        O347   2.060   1_554  S
Fe50        O339   2.074   1_554  S
Fe50        O345   1.975       .  S
Fe51         O62   2.077       .  S
Fe51         O67   2.056       .  S
Fe51        O338   2.065       .  S
Fe51        O342   2.062       .  S
Fe51         O61   1.982       .  S
Fe52         O57   2.080       .  S
Fe52         O53   2.055       .  S
Fe52        O354   2.049       .  S
Fe52        O348   2.078       .  S
Fe52         O61   1.984       .  S
O53          C60   1.269       .  A
O54        Fe335   2.065       .  S
O54          C68   1.270       .  A
O55        Fe334   2.074       .  S
O55          C60   1.268       .  A
O56          C59   1.268       .  A
O57          C69   1.269       .  A
O58        Fe335   2.062       .  S
O58          C71   1.264       .  A
C59         C136   1.498       .  S
C59          O64   1.272       .  A
C60         C146   1.494       .  S
O61        Fe334   1.975       .  S
O62          C65   1.271       .  A
O63        Fe334   2.060       .  S
O63          C65   1.269       .  A
O64        Fe336   2.078       .  S
C65         C156   1.482       .  S
O66          C71   1.272       .  A
O67          C69   1.266       .  A
C68         C189   1.459       .  S
C68          O70   1.265       .  A
C69         C179   1.477       .  S
O70        Fe336   2.049       .  S
C71         C166   1.490       .  S
C72          C73   1.407       .  A
C72          C77   1.415       .  A
C72         C129   1.496       .  S
C73          C74   1.396       .  A
C73          H78   1.084       .  S
C74        C1211   1.398       .  A
C74        C1322   1.483       .  S
C75        C1210   1.398       .  A
C75        C1212   1.402       .  A
C75          H79   1.084       .  S
C76          C77   1.411       .  A
C76        C1211   1.402       .  A
C76        C1312   1.489       .  S
C77          H80   1.081       .  S
C81          C82   1.417       .  A
C81          C86   1.399       .  A
C81         C116   1.487       .  S
C82          C83   1.407       .  A
C82          H87   1.082       .  S
C83          C84   1.409       .  A
C83         C169   1.506       .  S
C84          C85   1.406       .  A
C84          H88   1.083       .  S
C85          C86   1.402       .  A
C85         C159   1.477       .  S
C86          H89   1.084       .  S
C90          C91   1.407       .  A
C90          C95   1.413       .  A
C90         C109   1.494       .  S
C91          C92   1.402       .  A
C91          H96   1.083       .  S
C92          C93   1.399       .  A
C92         C149   1.473       .  S
C93          C94   1.401       .  A
C93          H97   1.084       .  S
C94          C95   1.406       .  A
C94         C139   1.488       .  S
C95          H98   1.083       .  S
C99         C100   1.447       .  A
C99         C672   1.452       .  A
C99         C824   1.559       .  S
C100        C101   1.425       .  A
C100        C119   1.496       .  S
C101        C102   1.409       .  A
C101        C226   1.496       .  S
C102        C103   1.418       .  A
C102        C126   1.508       .  S
C103        C672   1.436       .  A
C103       C1332   1.499       .  S
C104        C667   1.452   1_545  A
C104        C671   1.436   1_545  A
C104        C106   1.506       .  S
C105        C106   1.405       .  A
C105       C1246   1.399       .  A
C105        H112   1.083       .  S
C106       C1243   1.419       .  A
C107        C108   1.398       .  A
C107       C1242   1.419   1_455  A
C107       Br114   1.918       .  S
C108        C109   1.404       .  A
C108        H113   1.083       .  S
C109        C110   1.416   1_455  A
C110       C1241   1.399       .  A
C110      Br1247   1.920       .  S
Br111      C1246   1.920       .  S
C115        C116   1.409       .  A
C115        C120   1.415       .  A
C115        H122   1.083       .  S
C116        C117   1.394       .  A
C117        C118   1.381       .  A
C117       Br124   1.909       .  S
C118        C119   1.399       .  A
C118        H123   1.074       .  S
C119        C120   1.421       .  A
C120       Br689   1.916       .  S
Br121       C688   1.916       .  S
C125        C126   1.408       .  A
C125        C130   1.402       .  A
C125       H1268   1.083       .  S
C126        C127   1.414       .  A
C127        C128   1.394       .  A
C127       Br134   1.923       .  S
C128        C129   1.408       .  A
C128        H133   1.083       .  S
C129        C130   1.414       .  A
C130      Br1267   1.919       .  S
Br131      C1266   1.919   1_455  S
H132       C1261   1.083       .  S
C135        C136   1.410       .  A
C135        C140   1.401       .  A
C135        H142   1.083       .  S
C136        C137   1.420       .  A
C137        C138   1.402       .  A
C137       Br144   1.923       .  S
C138        C139   1.403       .  A
C138        H143   1.084       .  S
C139        C140   1.409       .  A
C140       Br141   1.921       .  S
C145        C146   1.410       .  A
C145        C150   1.394       .  A
C145        H152   1.082       .  S
C146        C147   1.422       .  A
C147        C148   1.404       .  A
C147       Br154   1.922       .  S
C148        C149   1.400       .  A
C148        H153   1.083       .  S
C149        C150   1.403       .  A
C150       Br151   1.920       .  S
C155        C156   1.406       .  A
C155        C160   1.397       .  A
C155        H162   1.083       .  S
C156        C157   1.413       .  A
C157        C158   1.403       .  A
C157       Br164   1.919       .  S
C158        C159   1.403       .  A
C158        H163   1.083       .  S
C159        C160   1.407       .  A
C160       Br161   1.920       .  S
C165        C166   1.397       .  A
C165        C170   1.394       .  A
C165        H172   1.084       .  S
C166        C167   1.416       .  A
C167        C168   1.406       .  A
C167       Br174   1.920       .  S
C168        C169   1.410       .  A
C168        H173   1.083       .  S
C169        C170   1.420       .  A
C170       Br171   1.904       .  S
C175        C176   1.407       .  A
C175        C180   1.392       .  A
C175        H182   1.084       .  S
C176        C177   1.412       .  A
C176       C1212   1.489       .  S
C177        C178   1.409       .  A
C177       Br184   1.917   1_455  S
C178        C179   1.407       .  A
C178        H183   1.084       .  S
C179        C180   1.406       .  A
C180       Br181   1.922       .  S
C185        C186   1.406       .  A
C185        C190   1.391       .  A
C185        H192   1.084       .  S
C186        C187   1.416       .  A
C186       C1210   1.483       .  S
C187        C188   1.400       .  A
C187      Br1330   1.921   1_455  S
C188        C189   1.400       .  A
C188        H193   1.084       .  S
C189        C190   1.403       .  A
C190       Br191   1.920       .  S
Br194      C1323   1.921       .  S
C195        C200   1.401       .  A
C195        C764   1.405   1_545  A
C195        H202   1.083       .  S
C196        C197   1.411       .  A
C196        C763   1.405       .  A
C196       C1239   1.499   1_455  S
C197        C198   1.391       .  A
C197      Br1340   1.914       .  S
C198        C199   1.405       .  A
C198        H203   1.083       .  S
C199        C768   1.418       .  A
C200        C767   1.418       .  A
C200       Br201   1.921       .  S
Br204      C1333   1.914       .  S
C205        C206   1.408       .  A
C205        C210   1.400       .  A
C205        H212   1.083       .  S
C206        C207   1.417       .  A
C207        C208   1.396       .  A
C207       Br214   1.924       .  S
C208        C209   1.402       .  A
C208        H213   1.083       .  S
C209        C210   1.411       .  A
C210       Br211   1.921       .  S
C215        C216   1.406       .  A
C215        C220   1.403       .  A
C215        H222   1.084       .  S
C216        C217   1.409       .  A
C217        C218   1.391       .  A
C217       Br224   1.920       .  S
C218        C219   1.402       .  A
C218        H223   1.084       .  S
C219        C220   1.409       .  A
C220       Br221   1.918   1_545  S
C225        C226   1.397       .  A
C225        C230   1.387       .  A
C225        H232   1.082       .  S
C226        C227   1.405       .  A
C227        C228   1.402       .  A
C227       Br234   1.917       .  S
C228        C229   1.414       .  A
C228        H233   1.082       .  S
C229        C230   1.417       .  A
C230       Br231   1.929       .  S
C235        C236   1.398       .  A
C235        C240   1.402       .  A
C235        H242   1.083       .  S
C236        C237   1.403       .  A
C237        C238   1.391       .  A
C237       Br244   1.922       .  S
C238        C239   1.408       .  A
C238        H243   1.083       .  S
C239        C240   1.423       .  A
C240       Br241   1.923       .  S
C245        C246   1.399       .  A
C245        C250   1.397       .  A
C245        H252   1.084       .  S
C246        C247   1.402       .  A
C247        C248   1.397       .  A
C247       Br254   1.919       .  S
C248        C249   1.411       .  A
C248        H253   1.083       .  S
C249        C250   1.420       .  A
C250       Br251   1.924       .  S
C255        C256   1.413       .  A
C255        C260   1.392       .  A
C255        H830   1.065   1_545  S
C256        C257   1.419       .  A
C256        C667   1.559   1_545  S
C257        C258   1.408       .  A
C257       Br264   1.911       .  S
C258        C259   1.403       .  A
C258        H263   1.083       .  S
C259        C260   1.400       .  A
C260       Br261   1.924       .  S
H262        C823   1.065       .  S
C265        C266   1.405       .  A
C265        C270   1.396       .  A
C265        H272   1.083       .  S
C266        C267   1.407       .  A
C267        C268   1.398       .  A
C267       Br274   1.920       .  S
C268        C269   1.409       .  A
C268        H273   1.083       .  S
C269        C270   1.412       .  A
C270       Br271   1.922       .  S
C275        C276   1.411       .  A
C275        C280   1.399       .  A
C275        H282   1.083       .  S
C276        C277   1.422       .  A
C277        C278   1.403       .  A
C277       Br284   1.923       .  S
C278        C279   1.401       .  A
C278        H283   1.084       .  S
C279        C280   1.405       .  A
C280       Br281   1.919       .  S
C285        C286   1.408       .  A
C285        C290   1.398       .  A
C285        C543   1.476       .  S
C286        C287   1.406       .  A
C286        H291   1.084       .  S
C287        C288   1.403       .  A
C287        C563   1.481       .  S
C288        C289   1.403       .  A
C288        H292   1.083       .  S
C289        C290   1.400       .  A
C289        C550   1.480       .  S
C290        H293   1.085       .  S
C294        C295   1.408       .  A
C294        C299   1.411       .  A
C294        C513   1.495       .  S
C295        C296   1.395       .  A
C295        H300   1.081       .  S
C296        C297   1.393       .  A
C296        C530   1.470       .  S
C297        C298   1.397       .  A
C297        H301   1.084       .  S
C298        C299   1.403       .  A
C298        C520   1.467       .  S
C299        H302   1.082       .  S
Fe303       O319   2.053       .  S
Fe303       O309   2.054       .  S
Fe304       O315   2.076       .  S
Fe304       O320   2.069       .  S
Fe304       O314   1.980       .  S
Fe305       O310   2.070       .  S
Fe305       O306   2.054       .  S
Fe305       O314   1.976       .  S
O306        C313   1.268       .  A
O307        C321   1.270       .  A
O308        C313   1.265       .  A
O309        C312   1.266       .  A
O310        C322   1.270       .  A
O311        C324   1.267       .  A
C312        C533   1.489       .  S
C312        O317   1.270       .  A
C313        C523   1.490       .  S
O315        C318   1.272       .  A
O316        C318   1.269       .  A
C318        C500   1.473       .  S
O319        C324   1.264       .  A
O320        C322   1.267       .  A
C321        C553   1.481       .  S
C321        O323   1.267       .  A
C322        C560   1.498       .  S
C324        C490   1.487       .  S
C325        C894   1.408       .  A
C325        C898   1.410       .  A
C325        C483   1.493       .  S
C326        C893   1.408       .  A
C326        C327   1.404       .  A
C326        H331   1.082       .  S
C327        C328   1.402       .  A
C327        C503   1.478       .  S
C328        C329   1.397       .  A
C328        H332   1.084       .  S
C329        C330   1.400       .  A
C329        C493   1.484       .  S
C330        C893   1.410       .  A
C330        H333   1.083       .  S
Fe334       O350   2.072       .  S
Fe334       O340   2.067       .  S
Fe335       O346   2.077   1_554  S
Fe335       O351   2.056   1_554  S
Fe335       O345   1.982       .  S
Fe336       O341   2.080   1_554  S
Fe336       O337   2.055   1_554  S
Fe336       O345   1.984       .  S
O337        C344   1.269       .  A
O338        C352   1.270       .  A
O339        C344   1.268       .  A
O340        C343   1.268       .  A
O341        C353   1.269       .  A
O342        C355   1.264       .  A
C343        C420   1.498       .  S
C343        O348   1.272       .  A
C344        C430   1.494       .  S
O346        C349   1.271       .  A
O347        C349   1.269       .  A
C349        C440   1.482       .  S
O350        C355   1.272       .  A
O351        C353   1.266       .  A
C352        C473   1.459       .  S
C352        O354   1.265       .  A
C353        C463   1.477       .  S
C355        C450   1.490       .  S
C356        C357   1.407       .  A
C356        C361   1.415       .  A
C356        C413   1.496       .  S
C357        C358   1.396       .  A
C357        H362   1.084       .  S
C358       C1495   1.398       .  A
C358       C1606   1.483       .  S
C359       C1494   1.398       .  A
C359       C1496   1.402       .  A
C359        H363   1.084       .  S
C360       C1495   1.402       .  A
C360        C361   1.411       .  A
C360       C1596   1.489       .  S
C361        H364   1.081       .  S
C365        C366   1.417       .  A
C365        C370   1.399       .  A
C365        C400   1.487       .  S
C366        C367   1.407       .  A
C366        H371   1.082       .  S
C367        C368   1.409       .  A
C367        C453   1.506       .  S
C368        C369   1.406       .  A
C368        H372   1.083       .  S
C369        C370   1.402       .  A
C369        C443   1.477       .  S
C370        H373   1.084       .  S
C374        C375   1.407       .  A
C374        C379   1.413       .  A
C374        C393   1.494       .  S
C375        C376   1.402       .  A
C375        H380   1.083       .  S
C376        C377   1.399       .  A
C376        C433   1.473       .  S
C377        C378   1.401       .  A
C377        H381   1.084       .  S
C378        C379   1.406       .  A
C378        C423   1.488       .  S
C379        H382   1.083       .  S
C383        C384   1.447       .  A
C383        C956   1.452       .  A
C383       C1108   1.559       .  S
C384        C385   1.425       .  A
C384        C403   1.496       .  S
C385        C386   1.409       .  A
C385        C510   1.496       .  S
C386        C387   1.418       .  A
C386        C410   1.508       .  S
C387        C956   1.436       .  A
C387       C1616   1.499       .  S
C388        C951   1.452   1_545  A
C388        C955   1.436   1_545  A
C388        C390   1.506       .  S
C389        C390   1.405       .  A
C389       C1530   1.399       .  A
C389        H396   1.083       .  S
C390       C1527   1.419       .  A
C391       C1526   1.419   1_455  A
C391        C392   1.398       .  A
C391       Br398   1.918       .  S
C392        C393   1.404       .  A
C392        H397   1.083       .  S
C393        C394   1.416   1_455  A
C394       C1525   1.399       .  A
C394      Br1531   1.920       .  S
Br395      C1530   1.920       .  S
C399        C400   1.409       .  A
C399        C404   1.415       .  A
C399        H406   1.083       .  S
C400        C401   1.394       .  A
C401        C402   1.381       .  A
C401       Br408   1.909       .  S
C402        C403   1.399       .  A
C402        H407   1.074       .  S
C403        C404   1.421       .  A
C404       Br973   1.916       .  S
Br405       C972   1.916       .  S
C409        C410   1.408       .  A
C409        C414   1.402       .  A
C409       H1552   1.083       .  S
C410        C411   1.414       .  A
C411        C412   1.394       .  A
C411       Br418   1.923       .  S
C412        C413   1.408       .  A
C412        H417   1.083       .  S
C413        C414   1.414       .  A
C414      Br1551   1.919       .  S
Br415      C1550   1.919   1_455  S
H416       C1545   1.083       .  S
C419        C420   1.410       .  A
C419        C424   1.401       .  A
C419        H426   1.083       .  S
C420        C421   1.420       .  A
C421        C422   1.402       .  A
C421       Br428   1.923       .  S
C422        C423   1.403       .  A
C422        H427   1.084       .  S
C423        C424   1.409       .  A
C424       Br425   1.921       .  S
C429        C430   1.410       .  A
C429        C434   1.394       .  A
C429        H436   1.082       .  S
C430        C431   1.422       .  A
C431        C432   1.404       .  A
C431       Br438   1.922       .  S
C432        C433   1.400       .  A
C432        H437   1.083       .  S
C433        C434   1.403       .  A
C434       Br435   1.920       .  S
C439        C440   1.406       .  A
C439        C444   1.397       .  A
C439        H446   1.083       .  S
C440        C441   1.413       .  A
C441        C442   1.403       .  A
C441       Br448   1.919       .  S
C442        C443   1.403       .  A
C442        H447   1.083       .  S
C443        C444   1.407       .  A
C444       Br445   1.920       .  S
C449        C450   1.397       .  A
C449        C454   1.394       .  A
C449        H456   1.084       .  S
C450        C451   1.416       .  A
C451        C452   1.406       .  A
C451       Br458   1.920       .  S
C452        C453   1.410       .  A
C452        H457   1.083       .  S
C453        C454   1.420       .  A
C454       Br455   1.904       .  S
C459        C460   1.407       .  A
C459        C464   1.392       .  A
C459        H466   1.084       .  S
C460        C461   1.412       .  A
C460       C1496   1.489       .  S
C461        C462   1.409       .  A
C461       Br468   1.917   1_455  S
C462        C463   1.407       .  A
C462        H467   1.084       .  S
C463        C464   1.406       .  A
C464       Br465   1.922       .  S
C469        C470   1.406       .  A
C469        C474   1.391       .  A
C469        H476   1.084       .  S
C470        C471   1.416       .  A
C470       C1494   1.483       .  S
C471        C472   1.400       .  A
C471      Br1614   1.921   1_455  S
C472        C473   1.400       .  A
C472        H477   1.084       .  S
C473        C474   1.403       .  A
C474       Br475   1.920       .  S
Br478      C1607   1.921       .  S
C479       C1048   1.405   1_545  A
C479        C484   1.401       .  A
C479        H486   1.083       .  S
C480       C1047   1.405       .  A
C480        C481   1.411       .  A
C480       C1523   1.499   1_455  S
C481        C482   1.391       .  A
C481      Br1624   1.914       .  S
C482        C483   1.405       .  A
C482        H487   1.083       .  S
C483       C1052   1.418       .  A
C484       C1051   1.418       .  A
C484       Br485   1.921       .  S
Br488      C1617   1.914       .  S
C489        C490   1.408       .  A
C489        C494   1.400       .  A
C489        H496   1.083       .  S
C490        C491   1.417       .  A
C491        C492   1.396       .  A
C491       Br498   1.924       .  S
C492        C493   1.402       .  A
C492        H497   1.083       .  S
C493        C494   1.411       .  A
C494       Br495   1.921       .  S
C499        C500   1.406       .  A
C499        C504   1.403       .  A
C499        H506   1.084       .  S
C500        C501   1.409       .  A
C501        C502   1.391       .  A
C501       Br508   1.920       .  S
C502        C503   1.402       .  A
C502        H507   1.084       .  S
C503        C504   1.409       .  A
C504       Br505   1.918   1_545  S
C509        C510   1.397       .  A
C509        C514   1.387       .  A
C509        H516   1.082       .  S
C510        C511   1.405       .  A
C511        C512   1.402       .  A
C511       Br518   1.917       .  S
C512        C513   1.414       .  A
C512        H517   1.082       .  S
C513        C514   1.417       .  A
C514       Br515   1.929       .  S
C519        C520   1.398       .  A
C519        C524   1.402       .  A
C519        H526   1.083       .  S
C520        C521   1.403       .  A
C521        C522   1.391       .  A
C521       Br528   1.922       .  S
C522        C523   1.408       .  A
C522        H527   1.083       .  S
C523        C524   1.423       .  A
C524       Br525   1.923       .  S
C529        C530   1.399       .  A
C529        C534   1.397       .  A
C529        H536   1.084       .  S
C530        C531   1.402       .  A
C531        C532   1.397       .  A
C531       Br538   1.919       .  S
C532        C533   1.411       .  A
C532        H537   1.083       .  S
C533        C534   1.420       .  A
C534       Br535   1.924       .  S
C539        C540   1.413       .  A
C539        C544   1.392       .  A
C539       H1114   1.065   1_545  S
C540        C541   1.419       .  A
C540        C951   1.559   1_545  S
C541        C542   1.408       .  A
C541       Br548   1.911       .  S
C542        C543   1.403       .  A
C542        H547   1.083       .  S
C543        C544   1.400       .  A
C544       Br545   1.924       .  S
H546       C1107   1.065       .  S
C549        C550   1.405       .  A
C549        C554   1.396       .  A
C549        H556   1.083       .  S
C550        C551   1.407       .  A
C551        C552   1.398       .  A
C551       Br558   1.920       .  S
C552        C553   1.409       .  A
C552        H557   1.083       .  S
C553        C554   1.412       .  A
C554       Br555   1.922       .  S
C559        C560   1.411       .  A
C559        C564   1.399       .  A
C559        H566   1.083       .  S
C560        C561   1.422       .  A
C561        C562   1.403       .  A
C561       Br568   1.923       .  S
C562        C563   1.401       .  A
C562        H567   1.084       .  S
C563        C564   1.405       .  A
C564       Br565   1.919       .  S
C569        C570   1.408       .  A
C569        C574   1.398       .  A
C569        C827   1.476       .  S
C570        C571   1.406       .  A
C570        H575   1.084       .  S
C571        C572   1.403       .  A
C571        C847   1.481       .  S
C572        C573   1.403       .  A
C572        H576   1.083       .  S
C573        C574   1.400       .  A
C573        C834   1.480       .  S
C574        H577   1.085       .  S
C578        C579   1.408       .  A
C578        C583   1.411       .  A
C578        C797   1.495       .  S
C579        C580   1.395       .  A
C579        H584   1.081       .  S
C580        C581   1.393       .  A
C580        C814   1.470       .  S
C581        C582   1.397       .  A
C581        H585   1.084       .  S
C582        C583   1.403       .  A
C582        C804   1.467       .  S
C583        H586   1.082       .  S
Fe587       O603   2.053   1_556  S
Fe587       O593   2.054   1_556  S
Fe587       O884   2.053       .  S
Fe587       O876   2.064       .  S
Fe587       O882   1.973       .  S
Fe588       O875   2.070       .  S
Fe588       O879   2.066       .  S
Fe588       O599   2.076       .  S
Fe588       O604   2.069       .  S
Fe588       O598   1.980       .  S
Fe589       O891   2.051       .  S
Fe589       O594   2.070       .  S
Fe589       O885   2.067       .  S
Fe589       O590   2.054       .  S
Fe589       O598   1.976       .  S
O590        C597   1.268       .  A
O591       Fe872   2.070   1_554  S
O591        C605   1.270       .  A
O592       Fe871   2.064       .  S
O592        C597   1.265       .  A
O593        C596   1.266       .  A
O594        C606   1.270       .  A
O595       Fe872   2.066   1_554  S
O595        C608   1.267       .  A
C596        C817   1.489       .  S
C596        O601   1.270       .  A
C597        C807   1.490       .  S
O598       Fe871   1.973       .  S
O599        C602   1.272       .  A
O600       Fe871   2.053       .  S
O600        C602   1.269       .  A
O601       Fe873   2.067   1_554  S
C602        C784   1.473       .  S
O603        C608   1.264       .  A
O604        C606   1.267       .  A
C605        C837   1.481       .  S
C605        O607   1.267       .  A
C606        C844   1.498       .  S
O607       Fe873   2.051   1_554  S
C608        C774   1.487       .  S
C609        C767   1.493       .  S
C610        C611   1.404       .  A
C610        H615   1.082       .  S
C611        C612   1.402       .  A
C611        C787   1.478       .  S
C612        C613   1.397       .  A
C612        H616   1.084       .  S
C613        C614   1.400       .  A
C613        C777   1.484       .  S
C614        H617   1.083       .  S
Fe618       O634   2.072       .  S
Fe618       O624   2.067       .  S
Fe618       O915   2.060   1_554  S
Fe618       O907   2.074   1_554  S
Fe618       O913   1.975       .  S
Fe619       O906   2.065       .  S
Fe619       O910   2.062       .  S
Fe619       O630   2.077       .  S
Fe619       O635   2.056       .  S
Fe619       O629   1.982       .  S
Fe620       O922   2.049       .  S
Fe620       O625   2.080       .  S
Fe620       O916   2.078       .  S
Fe620       O621   2.055       .  S
Fe620       O629   1.984       .  S
O621        C628   1.269       .  A
O622       Fe903   2.065       .  S
O622        C636   1.270       .  A
O623       Fe902   2.074       .  S
O623        C628   1.268       .  A
O624        C627   1.268       .  A
O625        C637   1.269       .  A
O626       Fe903   2.062       .  S
O626        C639   1.264       .  A
C627        C704   1.498       .  S
C627        O632   1.272       .  A
C628        C714   1.494       .  S
O629       Fe902   1.975       .  S
O630        C633   1.271       .  A
O631       Fe902   2.060       .  S
O631        C633   1.269       .  A
O632       Fe904   2.078       .  S
C633        C724   1.482       .  S
O634        C639   1.272       .  A
O635        C637   1.266       .  A
C636        C757   1.459       .  S
C636        O638   1.265       .  A
C637        C747   1.477       .  S
O638       Fe904   2.049       .  S
C639        C734   1.490       .  S
C640        C641   1.407       .  A
C640        C645   1.415       .  A
C640        C697   1.496       .  S
C641        C642   1.396       .  A
C641        H646   1.084       .  S
C642       C1779   1.398       .  A
C642       C1890   1.483       .  S
C643       C1778   1.398       .  A
C643       C1780   1.402       .  A
C643        H647   1.084       .  S
C644       C1779   1.402       .  A
C644        C645   1.411       .  A
C644       C1880   1.489       .  S
C645        H648   1.081       .  S
C649        C650   1.417       .  A
C649        C654   1.399       .  A
C649        C684   1.487       .  S
C650        C651   1.407       .  A
C650        H655   1.082       .  S
C651        C652   1.409       .  A
C651        C737   1.506       .  S
C652        C653   1.406       .  A
C652        H656   1.083       .  S
C653        C654   1.402       .  A
C653        C727   1.477       .  S
C654        H657   1.084       .  S
C658        C659   1.407       .  A
C658        C663   1.413       .  A
C658        C677   1.494       .  S
C659        C660   1.402       .  A
C659        H664   1.083       .  S
C660        C661   1.399       .  A
C660        C717   1.473       .  S
C661        C662   1.401       .  A
C661        H665   1.084       .  S
C662        C663   1.406       .  A
C662        C707   1.488       .  S
C663        H666   1.083       .  S
C667        C668   1.447       .  A
C668        C669   1.425       .  A
C668        C687   1.496       .  S
C669        C670   1.409       .  A
C669        C794   1.496       .  S
C670        C671   1.418       .  A
C670        C694   1.508       .  S
C671       C1900   1.499       .  S
C672        C674   1.506       .  S
C673        C674   1.405       .  A
C673       C1814   1.399       .  A
C673        H680   1.083       .  S
C674       C1811   1.419       .  A
C675       C1810   1.419   1_455  A
C675        C676   1.398       .  A
C675       Br682   1.918       .  S
C676        C677   1.404       .  A
C676        H681   1.083       .  S
C677        C678   1.416   1_455  A
C678       C1809   1.399       .  A
C678      Br1815   1.920       .  S
Br679      C1814   1.920       .  S
C683        C684   1.409       .  A
C683        C688   1.415       .  A
C683        H690   1.083       .  S
C684        C685   1.394       .  A
C685        C686   1.381       .  A
C685       Br692   1.909       .  S
C686        C687   1.399       .  A
C686        H691   1.074       .  S
C687        C688   1.421       .  A
C693        C694   1.408       .  A
C693        C698   1.402       .  A
C693       H1836   1.083       .  S
C694        C695   1.414       .  A
C695        C696   1.394       .  A
C695       Br702   1.923       .  S
C696        C697   1.408       .  A
C696        H701   1.083       .  S
C697        C698   1.414       .  A
C698      Br1835   1.919       .  S
Br699      C1834   1.919   1_455  S
H700       C1829   1.083       .  S
C703        C704   1.410       .  A
C703        C708   1.401       .  A
C703        H710   1.083       .  S
C704        C705   1.420       .  A
C705        C706   1.402       .  A
C705       Br712   1.923       .  S
C706        C707   1.403       .  A
C706        H711   1.084       .  S
C707        C708   1.409       .  A
C708       Br709   1.921       .  S
C713        C714   1.410       .  A
C713        C718   1.394       .  A
C713        H720   1.082       .  S
C714        C715   1.422       .  A
C715        C716   1.404       .  A
C715       Br722   1.922       .  S
C716        C717   1.400       .  A
C716        H721   1.083       .  S
C717        C718   1.403       .  A
C718       Br719   1.920       .  S
C723        C724   1.406       .  A
C723        C728   1.397       .  A
C723        H730   1.083       .  S
C724        C725   1.413       .  A
C725        C726   1.403       .  A
C725       Br732   1.919       .  S
C726        C727   1.403       .  A
C726        H731   1.083       .  S
C727        C728   1.407       .  A
C728       Br729   1.920       .  S
C733        C734   1.397       .  A
C733        C738   1.394       .  A
C733        H740   1.084       .  S
C734        C735   1.416       .  A
C735        C736   1.406       .  A
C735       Br742   1.920       .  S
C736        C737   1.410       .  A
C736        H741   1.083       .  S
C737        C738   1.420       .  A
C738       Br739   1.904       .  S
C743        C744   1.407       .  A
C743        C748   1.392       .  A
C743        H750   1.084       .  S
C744        C745   1.412       .  A
C744       C1780   1.489       .  S
C745        C746   1.409       .  A
C745       Br752   1.917   1_455  S
C746        C747   1.407       .  A
C746        H751   1.084       .  S
C747        C748   1.406       .  A
C748       Br749   1.922       .  S
C753        C754   1.406       .  A
C753        C758   1.391       .  A
C753        H760   1.084       .  S
C754        C755   1.416       .  A
C754       C1778   1.483       .  S
C755        C756   1.400       .  A
C755      Br1898   1.921   1_455  S
C756        C757   1.400       .  A
C756        H761   1.084       .  S
C757        C758   1.403       .  A
C758       Br759   1.920       .  S
Br762      C1891   1.921       .  S
C763        C768   1.401       .  A
C763        H770   1.083       .  S
C764        C765   1.411       .  A
C764       C1807   1.499   1_455  S
C765        C766   1.391       .  A
C765      Br1908   1.914       .  S
C766        C767   1.405   1_565  A
C766        H771   1.083       .  S
C768       Br769   1.921       .  S
Br772      C1901   1.914       .  S
C773        C774   1.408       .  A
C773        C778   1.400       .  A
C773        H780   1.083       .  S
C774        C775   1.417       .  A
C775        C776   1.396       .  A
C775       Br782   1.924       .  S
C776        C777   1.402       .  A
C776        H781   1.083       .  S
C777        C778   1.411       .  A
C778       Br779   1.921       .  S
C783        C784   1.406       .  A
C783        C788   1.403       .  A
C783        H790   1.084       .  S
C784        C785   1.409       .  A
C785        C786   1.391       .  A
C785       Br792   1.920       .  S
C786        C787   1.402       .  A
C786        H791   1.084       .  S
C787        C788   1.409       .  A
C788       Br789   1.918       .  S
C793        C794   1.397       .  A
C793        C798   1.387       .  A
C793        H800   1.082       .  S
C794        C795   1.405       .  A
C795        C796   1.402       .  A
C795       Br802   1.917       .  S
C796        C797   1.414       .  A
C796        H801   1.082       .  S
C797        C798   1.417       .  A
C798       Br799   1.929       .  S
C803        C804   1.398       .  A
C803        C808   1.402       .  A
C803        H810   1.083       .  S
C804        C805   1.403       .  A
C805        C806   1.391       .  A
C805       Br812   1.922       .  S
C806        C807   1.408       .  A
C806        H811   1.083       .  S
C807        C808   1.423       .  A
C808       Br809   1.923       .  S
C813        C814   1.399       .  A
C813        C818   1.397       .  A
C813        H820   1.084       .  S
C814        C815   1.402       .  A
C815        C816   1.397       .  A
C815       Br822   1.919       .  S
C816        C817   1.411       .  A
C816        H821   1.083       .  S
C817        C818   1.420       .  A
C818       Br819   1.924       .  S
C823        C824   1.413       .  A
C823        C828   1.392       .  A
C824        C825   1.419       .  A
C825        C826   1.408       .  A
C825       Br832   1.911       .  S
C826        C827   1.403       .  A
C826        H831   1.083       .  S
C827        C828   1.400       .  A
C828       Br829   1.924       .  S
C833        C834   1.405       .  A
C833        C838   1.396       .  A
C833        H840   1.083       .  S
C834        C835   1.407       .  A
C835        C836   1.398       .  A
C835       Br842   1.920       .  S
C836        C837   1.409       .  A
C836        H841   1.083       .  S
C837        C838   1.412       .  A
C838       Br839   1.922       .  S
C843        C844   1.411       .  A
C843        C848   1.399       .  A
C843        H850   1.083       .  S
C844        C845   1.422       .  A
C845        C846   1.403       .  A
C845       Br852   1.923       .  S
C846        C847   1.401       .  A
C846        H851   1.084       .  S
C847        C848   1.405       .  A
C848       Br849   1.919       .  S
C853        C854   1.408       .  A
C853        C858   1.398       .  A
C853       C1111   1.476       .  S
C854        C855   1.406       .  A
C854        H859   1.084       .  S
C855        C856   1.403       .  A
C855       C1131   1.481       .  S
C856        C857   1.403       .  A
C856        H860   1.083       .  S
C857        C858   1.400       .  A
C857       C1118   1.480       .  S
C858        H861   1.085       .  S
C862        C863   1.408       .  A
C862        C867   1.411       .  A
C862       C1081   1.495       .  S
C863        C864   1.395       .  A
C863        H868   1.081       .  S
C864        C865   1.393       .  A
C864       C1098   1.470       .  S
C865        C866   1.397       .  A
C865        H869   1.084       .  S
C866        C867   1.403       .  A
C866       C1088   1.467       .  S
C867        H870   1.082       .  S
Fe871       O887   2.053       .  S
Fe871       O877   2.054       .  S
Fe872       O883   2.076       .  S
Fe872       O888   2.069       .  S
Fe872       O882   1.980       .  S
Fe873       O878   2.070       .  S
Fe873       O874   2.054       .  S
Fe873       O882   1.976       .  S
O874        C881   1.268       .  A
O875        C889   1.270       .  A
O876        C881   1.265       .  A
O877        C880   1.266       .  A
O878        C890   1.270       .  A
O879        C892   1.267       .  A
C880       C1101   1.489       .  S
C880        O885   1.270       .  A
C881       C1091   1.490       .  S
O883        C886   1.272       .  A
O884        C886   1.269       .  A
C886       C1068   1.473       .  S
O887        C892   1.264       .  A
O888        C890   1.267       .  A
C889       C1121   1.481       .  S
C889        O891   1.267       .  A
C890       C1128   1.498       .  S
C892       C1058   1.487       .  S
C893       C1051   1.493       .  S
C894        C895   1.404       .  A
C894        H899   1.082       .  S
C895        C896   1.402       .  A
C895       C1071   1.478       .  S
C896        C897   1.397       .  A
C896        H900   1.084       .  S
C897        C898   1.400       .  A
C897       C1061   1.484       .  S
C898        H901   1.083       .  S
Fe902       O918   2.072       .  S
Fe902       O908   2.067       .  S
Fe903       O914   2.077   1_554  S
Fe903       O919   2.056   1_554  S
Fe903       O913   1.982       .  S
Fe904       O909   2.080   1_554  S
Fe904       O905   2.055   1_554  S
Fe904       O913   1.984       .  S
O905        C912   1.269       .  A
O906        C920   1.270       .  A
O907        C912   1.268       .  A
O908        C911   1.268       .  A
O909        C921   1.269       .  A
O910        C923   1.264       .  A
C911        C988   1.498       .  S
C911        O916   1.272       .  A
C912        C998   1.494       .  S
O914        C917   1.271       .  A
O915        C917   1.269       .  A
C917       C1008   1.482       .  S
O918        C923   1.272       .  A
O919        C921   1.266       .  A
C920       C1041   1.459       .  S
C920        O922   1.265       .  A
C921       C1031   1.477       .  S
C923       C1018   1.490       .  S
C924        C925   1.407       .  A
C924        C929   1.415       .  A
C924        C981   1.496       .  S
C925        C926   1.396       .  A
C925        H930   1.084       .  S
C926       C2063   1.398       .  A
C926       C2174   1.483       .  S
C927       C2062   1.398       .  A
C927       C2064   1.402       .  A
C927        H931   1.084       .  S
C928       C2063   1.402       .  A
C928        C929   1.411       .  A
C928       C2164   1.489       .  S
C929        H932   1.081       .  S
C933        C934   1.417       .  A
C933        C938   1.399       .  A
C933        C968   1.487       .  S
C934        C935   1.407       .  A
C934        H939   1.082       .  S
C935        C936   1.409       .  A
C935       C1021   1.506       .  S
C936        C937   1.406       .  A
C936        H940   1.083       .  S
C937        C938   1.402       .  A
C937       C1011   1.477       .  S
C938        H941   1.084       .  S
C942        C943   1.407       .  A
C942        C947   1.413       .  A
C942        C961   1.494       .  S
C943        C944   1.402       .  A
C943        H948   1.083       .  S
C944        C945   1.399       .  A
C944       C1001   1.473       .  S
C945        C946   1.401       .  A
C945        H949   1.084       .  S
C946        C947   1.406       .  A
C946        C991   1.488       .  S
C947        H950   1.083       .  S
C951        C952   1.447       .  A
C952        C953   1.425       .  A
C952        C971   1.496       .  S
C953        C954   1.409       .  A
C953       C1078   1.496       .  S
C954        C955   1.418       .  A
C954        C978   1.508       .  S
C955       C2184   1.499       .  S
C956        C958   1.506       .  S
C957        C958   1.405       .  A
C957       C2098   1.399       .  A
C957        H964   1.083       .  S
C958       C2095   1.419       .  A
C959       C2094   1.419   1_455  A
C959        C960   1.398       .  A
C959       Br966   1.918       .  S
C960        C961   1.404       .  A
C960        H965   1.083       .  S
C961        C962   1.416   1_455  A
C962       C2093   1.399       .  A
C962      Br2099   1.920       .  S
Br963      C2098   1.920       .  S
C967        C968   1.409       .  A
C967        C972   1.415       .  A
C967        H974   1.083       .  S
C968        C969   1.394       .  A
C969        C970   1.381       .  A
C969       Br976   1.909       .  S
C970        C971   1.399       .  A
C970        H975   1.074       .  S
C971        C972   1.421       .  A
C977        C978   1.408       .  A
C977        C982   1.402       .  A
C977       H2120   1.083       .  S
C978        C979   1.414       .  A
C979        C980   1.394       .  A
C979       Br986   1.923       .  S
C980        C981   1.408       .  A
C980        H985   1.083       .  S
C981        C982   1.414       .  A
C982      Br2119   1.919       .  S
Br983      C2118   1.919   1_455  S
H984       C2113   1.083       .  S
C987        C988   1.410       .  A
C987        C992   1.401       .  A
C987        H994   1.083       .  S
C988        C989   1.420       .  A
C989        C990   1.402       .  A
C989       Br996   1.923       .  S
C990        C991   1.403       .  A
C990        H995   1.084       .  S
C991        C992   1.409       .  A
C992       Br993   1.921       .  S
C997        C998   1.410       .  A
C997       C1002   1.394       .  A
C997       H1004   1.082       .  S
C998        C999   1.422       .  A
C999       C1000   1.404       .  A
C999      Br1006   1.922       .  S
C1000      C1001   1.400       .  A
C1000      H1005   1.083       .  S
C1001      C1002   1.403       .  A
C1002     Br1003   1.920       .  S
C1007      C1008   1.406       .  A
C1007      C1012   1.397       .  A
C1007      H1014   1.083       .  S
C1008      C1009   1.413       .  A
C1009      C1010   1.403       .  A
C1009     Br1016   1.919       .  S
C1010      C1011   1.403       .  A
C1010      H1015   1.083       .  S
C1011      C1012   1.407       .  A
C1012     Br1013   1.920       .  S
C1017      C1018   1.397       .  A
C1017      C1022   1.394       .  A
C1017      H1024   1.084       .  S
C1018      C1019   1.416       .  A
C1019      C1020   1.406       .  A
C1019     Br1026   1.920       .  S
C1020      C1021   1.410       .  A
C1020      H1025   1.083       .  S
C1021      C1022   1.420       .  A
C1022     Br1023   1.904       .  S
C1027      C1028   1.407       .  A
C1027      C1032   1.392       .  A
C1027      H1034   1.084       .  S
C1028      C1029   1.412       .  A
C1028      C2064   1.489       .  S
C1029      C1030   1.409       .  A
C1029     Br1036   1.917   1_455  S
C1030      C1031   1.407       .  A
C1030      H1035   1.084       .  S
C1031      C1032   1.406       .  A
C1032     Br1033   1.922       .  S
C1037      C1038   1.406       .  A
C1037      C1042   1.391       .  A
C1037      H1044   1.084       .  S
C1038      C1039   1.416       .  A
C1038      C2062   1.483       .  S
C1039      C1040   1.400       .  A
C1039     Br2182   1.921   1_455  S
C1040      C1041   1.400       .  A
C1040      H1045   1.084       .  S
C1041      C1042   1.403       .  A
C1042     Br1043   1.920       .  S
Br1046     C2175   1.921       .  S
C1047      C1052   1.401       .  A
C1047      H1054   1.083       .  S
C1048      C1049   1.411       .  A
C1048      C2091   1.499   1_455  S
C1049      C1050   1.391       .  A
C1049     Br2192   1.914       .  S
C1050      C1051   1.405   1_565  A
C1050      H1055   1.083       .  S
C1052     Br1053   1.921       .  S
Br1056     C2185   1.914       .  S
C1057      C1058   1.408       .  A
C1057      C1062   1.400       .  A
C1057      H1064   1.083       .  S
C1058      C1059   1.417       .  A
C1059      C1060   1.396       .  A
C1059     Br1066   1.924       .  S
C1060      C1061   1.402       .  A
C1060      H1065   1.083       .  S
C1061      C1062   1.411       .  A
C1062     Br1063   1.921       .  S
C1067      C1068   1.406       .  A
C1067      C1072   1.403       .  A
C1067      H1074   1.084       .  S
C1068      C1069   1.409       .  A
C1069      C1070   1.391       .  A
C1069     Br1076   1.920       .  S
C1070      C1071   1.402       .  A
C1070      H1075   1.084       .  S
C1071      C1072   1.409       .  A
C1072     Br1073   1.918       .  S
C1077      C1078   1.397       .  A
C1077      C1082   1.387       .  A
C1077      H1084   1.082       .  S
C1078      C1079   1.405       .  A
C1079      C1080   1.402       .  A
C1079     Br1086   1.917       .  S
C1080      C1081   1.414       .  A
C1080      H1085   1.082       .  S
C1081      C1082   1.417       .  A
C1082     Br1083   1.929       .  S
C1087      C1088   1.398       .  A
C1087      C1092   1.402       .  A
C1087      H1094   1.083       .  S
C1088      C1089   1.403       .  A
C1089      C1090   1.391       .  A
C1089     Br1096   1.922       .  S
C1090      C1091   1.408       .  A
C1090      H1095   1.083       .  S
C1091      C1092   1.423       .  A
C1092     Br1093   1.923       .  S
C1097      C1098   1.399       .  A
C1097      C1102   1.397       .  A
C1097      H1104   1.084       .  S
C1098      C1099   1.402       .  A
C1099      C1100   1.397       .  A
C1099     Br1106   1.919       .  S
C1100      C1101   1.411       .  A
C1100      H1105   1.083       .  S
C1101      C1102   1.420       .  A
C1102     Br1103   1.924       .  S
C1107      C1108   1.413       .  A
C1107      C1112   1.392       .  A
C1108      C1109   1.419       .  A
C1109      C1110   1.408       .  A
C1109     Br1116   1.911       .  S
C1110      C1111   1.403       .  A
C1110      H1115   1.083       .  S
C1111      C1112   1.400       .  A
C1112     Br1113   1.924       .  S
C1117      C1118   1.405       .  A
C1117      C1122   1.396       .  A
C1117      H1124   1.083       .  S
C1118      C1119   1.407       .  A
C1119      C1120   1.398       .  A
C1119     Br1126   1.920       .  S
C1120      C1121   1.409       .  A
C1120      H1125   1.083       .  S
C1121      C1122   1.412       .  A
C1122     Br1123   1.922       .  S
C1127      C1128   1.411       .  A
C1127      C1132   1.399       .  A
C1127      H1134   1.083       .  S
C1128      C1129   1.422       .  A
C1129      C1130   1.403       .  A
C1129     Br1136   1.923       .  S
C1130      C1131   1.401       .  A
C1130      H1135   1.084       .  S
C1131      C1132   1.405       .  A
C1132     Br1133   1.919       .  S
C1137      C1138   1.408       .  A
C1137      C1142   1.398       .  A
C1137      C1395   1.476       .  S
C1138      C1139   1.406       .  A
C1138      H1143   1.084       .  S
C1139      C1140   1.403       .  A
C1139      C1415   1.481       .  S
C1140      C1141   1.403       .  A
C1140      H1144   1.083       .  S
C1141      C1142   1.400       .  A
C1141      C1402   1.480       .  S
C1142      H1145   1.085       .  S
C1146      C1147   1.408       .  A
C1146      C1151   1.411       .  A
C1146      C1365   1.495       .  S
C1147      C1148   1.395       .  A
C1147      H1152   1.081       .  S
C1148      C1149   1.393       .  A
C1148      C1382   1.470       .  S
C1149      C1150   1.397       .  A
C1149      H1153   1.084       .  S
C1150      C1151   1.403       .  A
C1150      C1372   1.467       .  S
C1151      H1154   1.082       .  S
Fe1155     O1171   2.053   1_556  S
Fe1155     O1161   2.054   1_556  S
Fe1155     O1452   2.053       .  S
Fe1155     O1444   2.064       .  S
Fe1155     O1450   1.973       .  S
Fe1156     O1443   2.070       .  S
Fe1156     O1447   2.066       .  S
Fe1156     O1167   2.076       .  S
Fe1156     O1172   2.069       .  S
Fe1156     O1166   1.980       .  S
Fe1157     O1459   2.051       .  S
Fe1157     O1162   2.070       .  S
Fe1157     O1453   2.067       .  S
Fe1157     O1158   2.054       .  S
Fe1157     O1166   1.976       .  S
O1158      C1165   1.268       .  A
O1159     Fe1440   2.070   1_554  S
O1159      C1173   1.270       .  A
O1160     Fe1439   2.064       .  S
O1160      C1165   1.265       .  A
O1161      C1164   1.266       .  A
O1162      C1174   1.270       .  A
O1163     Fe1440   2.066   1_554  S
O1163      C1176   1.267       .  A
C1164      C1385   1.489       .  S
C1164      O1169   1.270       .  A
C1165      C1375   1.490       .  S
O1166     Fe1439   1.973       .  S
O1167      C1170   1.272       .  A
O1168     Fe1439   2.053       .  S
O1168      C1170   1.269       .  A
O1169     Fe1441   2.067   1_554  S
C1170      C1352   1.473       .  S
O1171      C1176   1.264       .  A
O1172      C1174   1.267       .  A
C1173      C1405   1.481       .  S
C1173      O1175   1.267       .  A
C1174      C1412   1.498       .  S
O1175     Fe1441   2.051   1_554  S
C1176      C1342   1.487       .  S
C1177      C1746   1.408       .  A
C1177      C1750   1.410       .  A
C1177      C1335   1.493       .  S
C1178      C1745   1.408       .  A
C1178      C1179   1.404       .  A
C1178      H1183   1.082       .  S
C1179      C1180   1.402       .  A
C1179      C1355   1.478       .  S
C1180      C1181   1.397       .  A
C1180      H1184   1.084       .  S
C1181      C1182   1.400       .  A
C1181      C1345   1.484       .  S
C1182      C1745   1.410       .  A
C1182      H1185   1.083       .  S
Fe1186     O1202   2.072       .  S
Fe1186     O1192   2.067       .  S
Fe1186     O1483   2.060   1_554  S
Fe1186     O1475   2.074   1_554  S
Fe1186     O1481   1.975       .  S
Fe1187     O1474   2.065       .  S
Fe1187     O1478   2.062       .  S
Fe1187     O1198   2.077       .  S
Fe1187     O1203   2.056       .  S
Fe1187     O1197   1.982       .  S
Fe1188     O1490   2.049       .  S
Fe1188     O1193   2.080       .  S
Fe1188     O1484   2.078       .  S
Fe1188     O1189   2.055       .  S
Fe1188     O1197   1.984       .  S
O1189      C1196   1.269       .  A
O1190     Fe1471   2.065       .  S
O1190      C1204   1.270       .  A
O1191     Fe1470   2.074       .  S
O1191      C1196   1.268       .  A
O1192      C1195   1.268       .  A
O1193      C1205   1.269       .  A
O1194     Fe1471   2.062       .  S
O1194      C1207   1.264       .  A
C1195      C1272   1.498       .  S
C1195      O1200   1.272       .  A
C1196      C1282   1.494       .  S
O1197     Fe1470   1.975       .  S
O1198      C1201   1.271       .  A
O1199     Fe1470   2.060       .  S
O1199      C1201   1.269       .  A
O1200     Fe1472   2.078       .  S
C1201      C1292   1.482       .  S
O1202      C1207   1.272       .  A
O1203      C1205   1.266       .  A
C1204      C1325   1.459       .  S
C1204      O1206   1.265       .  A
C1205      C1315   1.477       .  S
O1206     Fe1472   2.049       .  S
C1207      C1302   1.490       .  S
C1208      C1209   1.407   1_655  A
C1208      C1213   1.415       .  A
C1208      C1265   1.496       .  S
C1209      C1210   1.396       .  A
C1209      H1214   1.084       .  S
C1211      H1215   1.084       .  S
C1212      C1213   1.411   1_455  A
C1213      H1216   1.081       .  S
C1217      C1218   1.417       .  A
C1217      C1222   1.399       .  A
C1217      C1252   1.487       .  S
C1218      C1219   1.407       .  A
C1218      H1223   1.082       .  S
C1219      C1220   1.409       .  A
C1219      C1305   1.506       .  S
C1220      C1221   1.406       .  A
C1220      H1224   1.083       .  S
C1221      C1222   1.402       .  A
C1221      C1295   1.477       .  S
C1222      H1225   1.084       .  S
C1226      C1227   1.407       .  A
C1226      C1231   1.413       .  A
C1226      C1245   1.494       .  S
C1227      C1228   1.402       .  A
C1227      H1232   1.083       .  S
C1228      C1229   1.399       .  A
C1228      C1285   1.473       .  S
C1229      C1230   1.401       .  A
C1229      H1233   1.084       .  S
C1230      C1231   1.406       .  A
C1230      C1275   1.488       .  S
C1231      H1234   1.083       .  S
C1235      C1236   1.447       .  A
C1235      C1808   1.452       .  A
C1235      C1960   1.559       .  S
C1236      C1237   1.425       .  A
C1236      C1255   1.496       .  S
C1237      C1238   1.409       .  A
C1237      C1362   1.496       .  S
C1238      C1239   1.418       .  A
C1238      C1262   1.508       .  S
C1239      C1808   1.436       .  A
C1240      C1803   1.452   1_545  A
C1240      C1807   1.436   1_545  A
C1240      C1242   1.506       .  S
C1241      C1242   1.405       .  A
C1241      H1248   1.083       .  S
C1243      C1244   1.398       .  A
C1243     Br1250   1.918       .  S
C1244      C1245   1.404       .  A
C1244      H1249   1.083       .  S
C1245      C1246   1.416       .  A
C1251      C1252   1.409       .  A
C1251      C1256   1.415       .  A
C1251      H1258   1.083       .  S
C1252      C1253   1.394       .  A
C1253      C1254   1.381       .  A
C1253     Br1260   1.909       .  S
C1254      C1255   1.399       .  A
C1254      H1259   1.074       .  S
C1255      C1256   1.421       .  A
C1256     Br1825   1.916       .  S
Br1257     C1824   1.916       .  S
C1261      C1262   1.408       .  A
C1261      C1266   1.402       .  A
C1262      C1263   1.414       .  A
C1263      C1264   1.394       .  A
C1263     Br1270   1.923       .  S
C1264      C1265   1.408       .  A
C1264      H1269   1.083       .  S
C1265      C1266   1.414       .  A
C1271      C1272   1.410       .  A
C1271      C1276   1.401       .  A
C1271      H1278   1.083       .  S
C1272      C1273   1.420       .  A
C1273      C1274   1.402       .  A
C1273     Br1280   1.923       .  S
C1274      C1275   1.403       .  A
C1274      H1279   1.084       .  S
C1275      C1276   1.409       .  A
C1276     Br1277   1.921       .  S
C1281      C1282   1.410       .  A
C1281      C1286   1.394       .  A
C1281      H1288   1.082       .  S
C1282      C1283   1.422       .  A
C1283      C1284   1.404       .  A
C1283     Br1290   1.922       .  S
C1284      C1285   1.400       .  A
C1284      H1289   1.083       .  S
C1285      C1286   1.403       .  A
C1286     Br1287   1.920       .  S
C1291      C1292   1.406       .  A
C1291      C1296   1.397       .  A
C1291      H1298   1.083       .  S
C1292      C1293   1.413       .  A
C1293      C1294   1.403       .  A
C1293     Br1300   1.919       .  S
C1294      C1295   1.403       .  A
C1294      H1299   1.083       .  S
C1295      C1296   1.407       .  A
C1296     Br1297   1.920       .  S
C1301      C1302   1.397       .  A
C1301      C1306   1.394       .  A
C1301      H1308   1.084       .  S
C1302      C1303   1.416       .  A
C1303      C1304   1.406       .  A
C1303     Br1310   1.920       .  S
C1304      C1305   1.410       .  A
C1304      H1309   1.083       .  S
C1305      C1306   1.420       .  A
C1306     Br1307   1.904       .  S
C1311      C1312   1.407       .  A
C1311      C1316   1.392       .  A
C1311      H1318   1.084       .  S
C1312      C1313   1.412       .  A
C1313      C1314   1.409       .  A
C1313     Br1320   1.917       .  S
C1314      C1315   1.407       .  A
C1314      H1319   1.084       .  S
C1315      C1316   1.406       .  A
C1316     Br1317   1.922       .  S
C1321      C1322   1.406       .  A
C1321      C1326   1.391       .  A
C1321      H1328   1.084       .  S
C1322      C1323   1.416       .  A
C1323      C1324   1.400       .  A
C1324      C1325   1.400       .  A
C1324      H1329   1.084       .  S
C1325      C1326   1.403       .  A
C1326     Br1327   1.920       .  S
C1331      C1900   1.405   1_545  A
C1331      C1336   1.401       .  A
C1331      H1338   1.083       .  S
C1332      C1899   1.405       .  A
C1332      C1333   1.411       .  A
C1333      C1334   1.391       .  A
C1334      C1335   1.405       .  A
C1334      H1339   1.083       .  S
C1335      C1904   1.418       .  A
C1336      C1903   1.418       .  A
C1336     Br1337   1.921       .  S
C1341      C1342   1.408       .  A
C1341      C1346   1.400       .  A
C1341      H1348   1.083       .  S
C1342      C1343   1.417       .  A
C1343      C1344   1.396       .  A
C1343     Br1350   1.924       .  S
C1344      C1345   1.402       .  A
C1344      H1349   1.083       .  S
C1345      C1346   1.411       .  A
C1346     Br1347   1.921       .  S
C1351      C1352   1.406       .  A
C1351      C1356   1.403       .  A
C1351      H1358   1.084       .  S
C1352      C1353   1.409       .  A
C1353      C1354   1.391       .  A
C1353     Br1360   1.920       .  S
C1354      C1355   1.402       .  A
C1354      H1359   1.084       .  S
C1355      C1356   1.409       .  A
C1356     Br1357   1.918   1_545  S
C1361      C1362   1.397       .  A
C1361      C1366   1.387       .  A
C1361      H1368   1.082       .  S
C1362      C1363   1.405       .  A
C1363      C1364   1.402       .  A
C1363     Br1370   1.917       .  S
C1364      C1365   1.414       .  A
C1364      H1369   1.082       .  S
C1365      C1366   1.417       .  A
C1366     Br1367   1.929       .  S
C1371      C1372   1.398       .  A
C1371      C1376   1.402       .  A
C1371      H1378   1.083       .  S
C1372      C1373   1.403       .  A
C1373      C1374   1.391       .  A
C1373     Br1380   1.922       .  S
C1374      C1375   1.408       .  A
C1374      H1379   1.083       .  S
C1375      C1376   1.423       .  A
C1376     Br1377   1.923       .  S
C1381      C1382   1.399       .  A
C1381      C1386   1.397       .  A
C1381      H1388   1.084       .  S
C1382      C1383   1.402       .  A
C1383      C1384   1.397       .  A
C1383     Br1390   1.919       .  S
C1384      C1385   1.411       .  A
C1384      H1389   1.083       .  S
C1385      C1386   1.420       .  A
C1386     Br1387   1.924       .  S
C1391      C1392   1.413       .  A
C1391      C1396   1.392       .  A
C1391      H1966   1.065   1_545  S
C1392      C1393   1.419       .  A
C1392      C1803   1.559   1_545  S
C1393      C1394   1.408       .  A
C1393     Br1400   1.911       .  S
C1394      C1395   1.403       .  A
C1394      H1399   1.083       .  S
C1395      C1396   1.400       .  A
C1396     Br1397   1.924       .  S
H1398      C1959   1.065       .  S
C1401      C1402   1.405       .  A
C1401      C1406   1.396       .  A
C1401      H1408   1.083       .  S
C1402      C1403   1.407       .  A
C1403      C1404   1.398       .  A
C1403     Br1410   1.920       .  S
C1404      C1405   1.409       .  A
C1404      H1409   1.083       .  S
C1405      C1406   1.412       .  A
C1406     Br1407   1.922       .  S
C1411      C1412   1.411       .  A
C1411      C1416   1.399       .  A
C1411      H1418   1.083       .  S
C1412      C1413   1.422       .  A
C1413      C1414   1.403       .  A
C1413     Br1420   1.923       .  S
C1414      C1415   1.401       .  A
C1414      H1419   1.084       .  S
C1415      C1416   1.405       .  A
C1416     Br1417   1.919       .  S
C1421      C1422   1.408       .  A
C1421      C1426   1.398       .  A
C1421      C1679   1.476       .  S
C1422      C1423   1.406       .  A
C1422      H1427   1.084       .  S
C1423      C1424   1.403       .  A
C1423      C1699   1.481       .  S
C1424      C1425   1.403       .  A
C1424      H1428   1.083       .  S
C1425      C1426   1.400       .  A
C1425      C1686   1.480       .  S
C1426      H1429   1.085       .  S
C1430      C1431   1.408       .  A
C1430      C1435   1.411       .  A
C1430      C1649   1.495       .  S
C1431      C1432   1.395       .  A
C1431      H1436   1.081       .  S
C1432      C1433   1.393       .  A
C1432      C1666   1.470       .  S
C1433      C1434   1.397       .  A
C1433      H1437   1.084       .  S
C1434      C1435   1.403       .  A
C1434      C1656   1.467       .  S
C1435      H1438   1.082       .  S
Fe1439     O1455   2.053       .  S
Fe1439     O1445   2.054       .  S
Fe1440     O1451   2.076       .  S
Fe1440     O1456   2.069       .  S
Fe1440     O1450   1.980       .  S
Fe1441     O1446   2.070       .  S
Fe1441     O1442   2.054       .  S
Fe1441     O1450   1.976       .  S
O1442      C1449   1.268       .  A
O1443      C1457   1.270       .  A
O1444      C1449   1.265       .  A
O1445      C1448   1.266       .  A
O1446      C1458   1.270       .  A
O1447      C1460   1.267       .  A
C1448      C1669   1.489       .  S
C1448      O1453   1.270       .  A
C1449      C1659   1.490       .  S
O1451      C1454   1.272       .  A
O1452      C1454   1.269       .  A
C1454      C1636   1.473       .  S
O1455      C1460   1.264       .  A
O1456      C1458   1.267       .  A
C1457      C1689   1.481       .  S
C1457      O1459   1.267       .  A
C1458      C1696   1.498       .  S
C1460      C1626   1.487       .  S
C1461      C2030   1.408       .  A
C1461      C2034   1.410       .  A
C1461      C1619   1.493       .  S
C1462      C2029   1.408       .  A
C1462      C1463   1.404       .  A
C1462      H1467   1.082       .  S
C1463      C1464   1.402       .  A
C1463      C1639   1.478       .  S
C1464      C1465   1.397       .  A
C1464      H1468   1.084       .  S
C1465      C1466   1.400       .  A
C1465      C1629   1.484       .  S
C1466      C2029   1.410       .  A
C1466      H1469   1.083       .  S
Fe1470     O1486   2.072       .  S
Fe1470     O1476   2.067       .  S
Fe1471     O1482   2.077   1_554  S
Fe1471     O1487   2.056   1_554  S
Fe1471     O1481   1.982       .  S
Fe1472     O1477   2.080   1_554  S
Fe1472     O1473   2.055   1_554  S
Fe1472     O1481   1.984       .  S
O1473      C1480   1.269       .  A
O1474      C1488   1.270       .  A
O1475      C1480   1.268       .  A
O1476      C1479   1.268       .  A
O1477      C1489   1.269       .  A
O1478      C1491   1.264       .  A
C1479      C1556   1.498       .  S
C1479      O1484   1.272       .  A
C1480      C1566   1.494       .  S
O1482      C1485   1.271       .  A
O1483      C1485   1.269       .  A
C1485      C1576   1.482       .  S
O1486      C1491   1.272       .  A
O1487      C1489   1.266       .  A
C1488      C1609   1.459       .  S
C1488      O1490   1.265       .  A
C1489      C1599   1.477       .  S
C1491      C1586   1.490       .  S
C1492      C1493   1.407   1_655  A
C1492      C1497   1.415       .  A
C1492      C1549   1.496       .  S
C1493      C1494   1.396       .  A
C1493      H1498   1.084       .  S
C1495      H1499   1.084       .  S
C1496      C1497   1.411   1_455  A
C1497      H1500   1.081       .  S
C1501      C1502   1.417       .  A
C1501      C1506   1.399       .  A
C1501      C1536   1.487       .  S
C1502      C1503   1.407       .  A
C1502      H1507   1.082       .  S
C1503      C1504   1.409       .  A
C1503      C1589   1.506       .  S
C1504      C1505   1.406       .  A
C1504      H1508   1.083       .  S
C1505      C1506   1.402       .  A
C1505      C1579   1.477       .  S
C1506      H1509   1.084       .  S
C1510      C1511   1.407       .  A
C1510      C1515   1.413       .  A
C1510      C1529   1.494       .  S
C1511      C1512   1.402       .  A
C1511      H1516   1.083       .  S
C1512      C1513   1.399       .  A
C1512      C1569   1.473       .  S
C1513      C1514   1.401       .  A
C1513      H1517   1.084       .  S
C1514      C1515   1.406       .  A
C1514      C1559   1.488       .  S
C1515      H1518   1.083       .  S
C1519      C1520   1.447       .  A
C1519      C2092   1.452       .  A
C1519      C2244   1.559       .  S
C1520      C1521   1.425       .  A
C1520      C1539   1.496       .  S
C1521      C1522   1.409       .  A
C1521      C1646   1.496       .  S
C1522      C1523   1.418       .  A
C1522      C1546   1.508       .  S
C1523      C2092   1.436       .  A
C1524      C2087   1.452   1_545  A
C1524      C2091   1.436   1_545  A
C1524      C1526   1.506       .  S
C1525      C1526   1.405       .  A
C1525      H1532   1.083       .  S
C1527      C1528   1.398       .  A
C1527     Br1534   1.918       .  S
C1528      C1529   1.404       .  A
C1528      H1533   1.083       .  S
C1529      C1530   1.416       .  A
C1535      C1536   1.409       .  A
C1535      C1540   1.415       .  A
C1535      H1542   1.083       .  S
C1536      C1537   1.394       .  A
C1537      C1538   1.381       .  A
C1537     Br1544   1.909       .  S
C1538      C1539   1.399       .  A
C1538      H1543   1.074       .  S
C1539      C1540   1.421       .  A
C1540     Br2109   1.916       .  S
Br1541     C2108   1.916       .  S
C1545      C1546   1.408       .  A
C1545      C1550   1.402       .  A
C1546      C1547   1.414       .  A
C1547      C1548   1.394       .  A
C1547     Br1554   1.923       .  S
C1548      C1549   1.408       .  A
C1548      H1553   1.083       .  S
C1549      C1550   1.414       .  A
C1555      C1556   1.410       .  A
C1555      C1560   1.401       .  A
C1555      H1562   1.083       .  S
C1556      C1557   1.420       .  A
C1557      C1558   1.402       .  A
C1557     Br1564   1.923       .  S
C1558      C1559   1.403       .  A
C1558      H1563   1.084       .  S
C1559      C1560   1.409       .  A
C1560     Br1561   1.921       .  S
C1565      C1566   1.410       .  A
C1565      C1570   1.394       .  A
C1565      H1572   1.082       .  S
C1566      C1567   1.422       .  A
C1567      C1568   1.404       .  A
C1567     Br1574   1.922       .  S
C1568      C1569   1.400       .  A
C1568      H1573   1.083       .  S
C1569      C1570   1.403       .  A
C1570     Br1571   1.920       .  S
C1575      C1576   1.406       .  A
C1575      C1580   1.397       .  A
C1575      H1582   1.083       .  S
C1576      C1577   1.413       .  A
C1577      C1578   1.403       .  A
C1577     Br1584   1.919       .  S
C1578      C1579   1.403       .  A
C1578      H1583   1.083       .  S
C1579      C1580   1.407       .  A
C1580     Br1581   1.920       .  S
C1585      C1586   1.397       .  A
C1585      C1590   1.394       .  A
C1585      H1592   1.084       .  S
C1586      C1587   1.416       .  A
C1587      C1588   1.406       .  A
C1587     Br1594   1.920       .  S
C1588      C1589   1.410       .  A
C1588      H1593   1.083       .  S
C1589      C1590   1.420       .  A
C1590     Br1591   1.904       .  S
C1595      C1596   1.407       .  A
C1595      C1600   1.392       .  A
C1595      H1602   1.084       .  S
C1596      C1597   1.412       .  A
C1597      C1598   1.409       .  A
C1597     Br1604   1.917       .  S
C1598      C1599   1.407       .  A
C1598      H1603   1.084       .  S
C1599      C1600   1.406       .  A
C1600     Br1601   1.922       .  S
C1605      C1606   1.406       .  A
C1605      C1610   1.391       .  A
C1605      H1612   1.084       .  S
C1606      C1607   1.416       .  A
C1607      C1608   1.400       .  A
C1608      C1609   1.400       .  A
C1608      H1613   1.084       .  S
C1609      C1610   1.403       .  A
C1610     Br1611   1.920       .  S
C1615      C2184   1.405   1_545  A
C1615      C1620   1.401       .  A
C1615      H1622   1.083       .  S
C1616      C2183   1.405       .  A
C1616      C1617   1.411       .  A
C1617      C1618   1.391       .  A
C1618      C1619   1.405       .  A
C1618      H1623   1.083       .  S
C1619      C2188   1.418       .  A
C1620      C2187   1.418       .  A
C1620     Br1621   1.921       .  S
C1625      C1626   1.408       .  A
C1625      C1630   1.400       .  A
C1625      H1632   1.083       .  S
C1626      C1627   1.417       .  A
C1627      C1628   1.396       .  A
C1627     Br1634   1.924       .  S
C1628      C1629   1.402       .  A
C1628      H1633   1.083       .  S
C1629      C1630   1.411       .  A
C1630     Br1631   1.921       .  S
C1635      C1636   1.406       .  A
C1635      C1640   1.403       .  A
C1635      H1642   1.084       .  S
C1636      C1637   1.409       .  A
C1637      C1638   1.391       .  A
C1637     Br1644   1.920       .  S
C1638      C1639   1.402       .  A
C1638      H1643   1.084       .  S
C1639      C1640   1.409       .  A
C1640     Br1641   1.918   1_545  S
C1645      C1646   1.397       .  A
C1645      C1650   1.387       .  A
C1645      H1652   1.082       .  S
C1646      C1647   1.405       .  A
C1647      C1648   1.402       .  A
C1647     Br1654   1.917       .  S
C1648      C1649   1.414       .  A
C1648      H1653   1.082       .  S
C1649      C1650   1.417       .  A
C1650     Br1651   1.929       .  S
C1655      C1656   1.398       .  A
C1655      C1660   1.402       .  A
C1655      H1662   1.083       .  S
C1656      C1657   1.403       .  A
C1657      C1658   1.391       .  A
C1657     Br1664   1.922       .  S
C1658      C1659   1.408       .  A
C1658      H1663   1.083       .  S
C1659      C1660   1.423       .  A
C1660     Br1661   1.923       .  S
C1665      C1666   1.399       .  A
C1665      C1670   1.397       .  A
C1665      H1672   1.084       .  S
C1666      C1667   1.402       .  A
C1667      C1668   1.397       .  A
C1667     Br1674   1.919       .  S
C1668      C1669   1.411       .  A
C1668      H1673   1.083       .  S
C1669      C1670   1.420       .  A
C1670     Br1671   1.924       .  S
C1675      C1676   1.413       .  A
C1675      C1680   1.392       .  A
C1675      H2250   1.065   1_545  S
C1676      C1677   1.419       .  A
C1676      C2087   1.559   1_545  S
C1677      C1678   1.408       .  A
C1677     Br1684   1.911       .  S
C1678      C1679   1.403       .  A
C1678      H1683   1.083       .  S
C1679      C1680   1.400       .  A
C1680     Br1681   1.924       .  S
H1682      C2243   1.065       .  S
C1685      C1686   1.405       .  A
C1685      C1690   1.396       .  A
C1685      H1692   1.083       .  S
C1686      C1687   1.407       .  A
C1687      C1688   1.398       .  A
C1687     Br1694   1.920       .  S
C1688      C1689   1.409       .  A
C1688      H1693   1.083       .  S
C1689      C1690   1.412       .  A
C1690     Br1691   1.922       .  S
C1695      C1696   1.411       .  A
C1695      C1700   1.399       .  A
C1695      H1702   1.083       .  S
C1696      C1697   1.422       .  A
C1697      C1698   1.403       .  A
C1697     Br1704   1.923       .  S
C1698      C1699   1.401       .  A
C1698      H1703   1.084       .  S
C1699      C1700   1.405       .  A
C1700     Br1701   1.919       .  S
C1705      C1706   1.408       .  A
C1705      C1710   1.398       .  A
C1705      C1963   1.476       .  S
C1706      C1707   1.406       .  A
C1706      H1711   1.084       .  S
C1707      C1708   1.403       .  A
C1707      C1983   1.481       .  S
C1708      C1709   1.403       .  A
C1708      H1712   1.083       .  S
C1709      C1710   1.400       .  A
C1709      C1970   1.480       .  S
C1710      H1713   1.085       .  S
C1714      C1715   1.408       .  A
C1714      C1719   1.411       .  A
C1714      C1933   1.495       .  S
C1715      C1716   1.395       .  A
C1715      H1720   1.081       .  S
C1716      C1717   1.393       .  A
C1716      C1950   1.470       .  S
C1717      C1718   1.397       .  A
C1717      H1721   1.084       .  S
C1718      C1719   1.403       .  A
C1718      C1940   1.467       .  S
C1719      H1722   1.082       .  S
Fe1723     O1739   2.053   1_556  S
Fe1723     O1729   2.054   1_556  S
Fe1723     O2020   2.053       .  S
Fe1723     O2012   2.064       .  S
Fe1723     O2018   1.973       .  S
Fe1724     O2011   2.070       .  S
Fe1724     O2015   2.066       .  S
Fe1724     O1735   2.076       .  S
Fe1724     O1740   2.069       .  S
Fe1724     O1734   1.980       .  S
Fe1725     O2027   2.051       .  S
Fe1725     O1730   2.070       .  S
Fe1725     O2021   2.067       .  S
Fe1725     O1726   2.054       .  S
Fe1725     O1734   1.976       .  S
O1726      C1733   1.268       .  A
O1727     Fe2008   2.070   1_554  S
O1727      C1741   1.270       .  A
O1728     Fe2007   2.064       .  S
O1728      C1733   1.265       .  A
O1729      C1732   1.266       .  A
O1730      C1742   1.270       .  A
O1731     Fe2008   2.066   1_554  S
O1731      C1744   1.267       .  A
C1732      C1953   1.489       .  S
C1732      O1737   1.270       .  A
C1733      C1943   1.490       .  S
O1734     Fe2007   1.973       .  S
O1735      C1738   1.272       .  A
O1736     Fe2007   2.053       .  S
O1736      C1738   1.269       .  A
O1737     Fe2009   2.067   1_554  S
C1738      C1920   1.473       .  S
O1739      C1744   1.264       .  A
O1740      C1742   1.267       .  A
C1741      C1973   1.481       .  S
C1741      O1743   1.267       .  A
C1742      C1980   1.498       .  S
O1743     Fe2009   2.051   1_554  S
C1744      C1910   1.487       .  S
C1745      C1903   1.493       .  S
C1746      C1747   1.404       .  A
C1746      H1751   1.082       .  S
C1747      C1748   1.402       .  A
C1747      C1923   1.478       .  S
C1748      C1749   1.397       .  A
C1748      H1752   1.084       .  S
C1749      C1750   1.400       .  A
C1749      C1913   1.484       .  S
C1750      H1753   1.083       .  S
Fe1754     O1770   2.072       .  S
Fe1754     O1760   2.067       .  S
Fe1754     O2051   2.060   1_554  S
Fe1754     O2043   2.074   1_554  S
Fe1754     O2049   1.975       .  S
Fe1755     O2042   2.065       .  S
Fe1755     O2046   2.062       .  S
Fe1755     O1766   2.077       .  S
Fe1755     O1771   2.056       .  S
Fe1755     O1765   1.982       .  S
Fe1756     O2058   2.049       .  S
Fe1756     O1761   2.080       .  S
Fe1756     O2052   2.078       .  S
Fe1756     O1757   2.055       .  S
Fe1756     O1765   1.984       .  S
O1757      C1764   1.269       .  A
O1758     Fe2039   2.065       .  S
O1758      C1772   1.270       .  A
O1759     Fe2038   2.074       .  S
O1759      C1764   1.268       .  A
O1760      C1763   1.268       .  A
O1761      C1773   1.269       .  A
O1762     Fe2039   2.062       .  S
O1762      C1775   1.264       .  A
C1763      C1840   1.498       .  S
C1763      O1768   1.272       .  A
C1764      C1850   1.494       .  S
O1765     Fe2038   1.975       .  S
O1766      C1769   1.271       .  A
O1767     Fe2038   2.060       .  S
O1767      C1769   1.269       .  A
O1768     Fe2040   2.078       .  S
C1769      C1860   1.482       .  S
O1770      C1775   1.272       .  A
O1771      C1773   1.266       .  A
C1772      C1893   1.459       .  S
C1772      O1774   1.265       .  A
C1773      C1883   1.477       .  S
O1774     Fe2040   2.049       .  S
C1775      C1870   1.490       .  S
C1776      C1777   1.407   1_655  A
C1776      C1781   1.415       .  A
C1776      C1833   1.496       .  S
C1777      C1778   1.396       .  A
C1777      H1782   1.084       .  S
C1779      H1783   1.084       .  S
C1780      C1781   1.411   1_455  A
C1781      H1784   1.081       .  S
C1785      C1786   1.417       .  A
C1785      C1790   1.399       .  A
C1785      C1820   1.487       .  S
C1786      C1787   1.407       .  A
C1786      H1791   1.082       .  S
C1787      C1788   1.409       .  A
C1787      C1873   1.506       .  S
C1788      C1789   1.406       .  A
C1788      H1792   1.083       .  S
C1789      C1790   1.402       .  A
C1789      C1863   1.477       .  S
C1790      H1793   1.084       .  S
C1794      C1795   1.407       .  A
C1794      C1799   1.413       .  A
C1794      C1813   1.494       .  S
C1795      C1796   1.402       .  A
C1795      H1800   1.083       .  S
C1796      C1797   1.399       .  A
C1796      C1853   1.473       .  S
C1797      C1798   1.401       .  A
C1797      H1801   1.084       .  S
C1798      C1799   1.406       .  A
C1798      C1843   1.488       .  S
C1799      H1802   1.083       .  S
C1803      C1804   1.447       .  A
C1804      C1805   1.425       .  A
C1804      C1823   1.496       .  S
C1805      C1806   1.409       .  A
C1805      C1930   1.496       .  S
C1806      C1807   1.418       .  A
C1806      C1830   1.508       .  S
C1808      C1810   1.506       .  S
C1809      C1810   1.405       .  A
C1809      H1816   1.083       .  S
C1811      C1812   1.398       .  A
C1811     Br1818   1.918       .  S
C1812      C1813   1.404       .  A
C1812      H1817   1.083       .  S
C1813      C1814   1.416       .  A
C1819      C1820   1.409       .  A
C1819      C1824   1.415       .  A
C1819      H1826   1.083       .  S
C1820      C1821   1.394       .  A
C1821      C1822   1.381       .  A
C1821     Br1828   1.909       .  S
C1822      C1823   1.399       .  A
C1822      H1827   1.074       .  S
C1823      C1824   1.421       .  A
C1829      C1830   1.408       .  A
C1829      C1834   1.402       .  A
C1830      C1831   1.414       .  A
C1831      C1832   1.394       .  A
C1831     Br1838   1.923       .  S
C1832      C1833   1.408       .  A
C1832      H1837   1.083       .  S
C1833      C1834   1.414       .  A
C1839      C1840   1.410       .  A
C1839      C1844   1.401       .  A
C1839      H1846   1.083       .  S
C1840      C1841   1.420       .  A
C1841      C1842   1.402       .  A
C1841     Br1848   1.923       .  S
C1842      C1843   1.403       .  A
C1842      H1847   1.084       .  S
C1843      C1844   1.409       .  A
C1844     Br1845   1.921       .  S
C1849      C1850   1.410       .  A
C1849      C1854   1.394       .  A
C1849      H1856   1.082       .  S
C1850      C1851   1.422       .  A
C1851      C1852   1.404       .  A
C1851     Br1858   1.922       .  S
C1852      C1853   1.400       .  A
C1852      H1857   1.083       .  S
C1853      C1854   1.403       .  A
C1854     Br1855   1.920       .  S
C1859      C1860   1.406       .  A
C1859      C1864   1.397       .  A
C1859      H1866   1.083       .  S
C1860      C1861   1.413       .  A
C1861      C1862   1.403       .  A
C1861     Br1868   1.919       .  S
C1862      C1863   1.403       .  A
C1862      H1867   1.083       .  S
C1863      C1864   1.407       .  A
C1864     Br1865   1.920       .  S
C1869      C1870   1.397       .  A
C1869      C1874   1.394       .  A
C1869      H1876   1.084       .  S
C1870      C1871   1.416       .  A
C1871      C1872   1.406       .  A
C1871     Br1878   1.920       .  S
C1872      C1873   1.410       .  A
C1872      H1877   1.083       .  S
C1873      C1874   1.420       .  A
C1874     Br1875   1.904       .  S
C1879      C1880   1.407       .  A
C1879      C1884   1.392       .  A
C1879      H1886   1.084       .  S
C1880      C1881   1.412       .  A
C1881      C1882   1.409       .  A
C1881     Br1888   1.917       .  S
C1882      C1883   1.407       .  A
C1882      H1887   1.084       .  S
C1883      C1884   1.406       .  A
C1884     Br1885   1.922       .  S
C1889      C1890   1.406       .  A
C1889      C1894   1.391       .  A
C1889      H1896   1.084       .  S
C1890      C1891   1.416       .  A
C1891      C1892   1.400       .  A
C1892      C1893   1.400       .  A
C1892      H1897   1.084       .  S
C1893      C1894   1.403       .  A
C1894     Br1895   1.920       .  S
C1899      C1904   1.401       .  A
C1899      H1906   1.083       .  S
C1900      C1901   1.411       .  A
C1901      C1902   1.391       .  A
C1902      C1903   1.405   1_565  A
C1902      H1907   1.083       .  S
C1904     Br1905   1.921       .  S
C1909      C1910   1.408       .  A
C1909      C1914   1.400       .  A
C1909      H1916   1.083       .  S
C1910      C1911   1.417       .  A
C1911      C1912   1.396       .  A
C1911     Br1918   1.924       .  S
C1912      C1913   1.402       .  A
C1912      H1917   1.083       .  S
C1913      C1914   1.411       .  A
C1914     Br1915   1.921       .  S
C1919      C1920   1.406       .  A
C1919      C1924   1.403       .  A
C1919      H1926   1.084       .  S
C1920      C1921   1.409       .  A
C1921      C1922   1.391       .  A
C1921     Br1928   1.920       .  S
C1922      C1923   1.402       .  A
C1922      H1927   1.084       .  S
C1923      C1924   1.409       .  A
C1924     Br1925   1.918       .  S
C1929      C1930   1.397       .  A
C1929      C1934   1.387       .  A
C1929      H1936   1.082       .  S
C1930      C1931   1.405       .  A
C1931      C1932   1.402       .  A
C1931     Br1938   1.917       .  S
C1932      C1933   1.414       .  A
C1932      H1937   1.082       .  S
C1933      C1934   1.417       .  A
C1934     Br1935   1.929       .  S
C1939      C1940   1.398       .  A
C1939      C1944   1.402       .  A
C1939      H1946   1.083       .  S
C1940      C1941   1.403       .  A
C1941      C1942   1.391       .  A
C1941     Br1948   1.922       .  S
C1942      C1943   1.408       .  A
C1942      H1947   1.083       .  S
C1943      C1944   1.423       .  A
C1944     Br1945   1.923       .  S
C1949      C1950   1.399       .  A
C1949      C1954   1.397       .  A
C1949      H1956   1.084       .  S
C1950      C1951   1.402       .  A
C1951      C1952   1.397       .  A
C1951     Br1958   1.919       .  S
C1952      C1953   1.411       .  A
C1952      H1957   1.083       .  S
C1953      C1954   1.420       .  A
C1954     Br1955   1.924       .  S
C1959      C1960   1.413       .  A
C1959      C1964   1.392       .  A
C1960      C1961   1.419       .  A
C1961      C1962   1.408       .  A
C1961     Br1968   1.911       .  S
C1962      C1963   1.403       .  A
C1962      H1967   1.083       .  S
C1963      C1964   1.400       .  A
C1964     Br1965   1.924       .  S
C1969      C1970   1.405       .  A
C1969      C1974   1.396       .  A
C1969      H1976   1.083       .  S
C1970      C1971   1.407       .  A
C1971      C1972   1.398       .  A
C1971     Br1978   1.920       .  S
C1972      C1973   1.409       .  A
C1972      H1977   1.083       .  S
C1973      C1974   1.412       .  A
C1974     Br1975   1.922       .  S
C1979      C1980   1.411       .  A
C1979      C1984   1.399       .  A
C1979      H1986   1.083       .  S
C1980      C1981   1.422       .  A
C1981      C1982   1.403       .  A
C1981     Br1988   1.923       .  S
C1982      C1983   1.401       .  A
C1982      H1987   1.084       .  S
C1983      C1984   1.405       .  A
C1984     Br1985   1.919       .  S
C1989      C1990   1.408       .  A
C1989      C1994   1.398       .  A
C1989      C2247   1.476       .  S
C1990      C1991   1.406       .  A
C1990      H1995   1.084       .  S
C1991      C1992   1.403       .  A
C1991      C2267   1.481       .  S
C1992      C1993   1.403       .  A
C1992      H1996   1.083       .  S
C1993      C1994   1.400       .  A
C1993      C2254   1.480       .  S
C1994      H1997   1.085       .  S
C1998      C1999   1.408       .  A
C1998      C2003   1.411       .  A
C1998      C2217   1.495       .  S
C1999      C2000   1.395       .  A
C1999      H2004   1.081       .  S
C2000      C2001   1.393       .  A
C2000      C2234   1.470       .  S
C2001      C2002   1.397       .  A
C2001      H2005   1.084       .  S
C2002      C2003   1.403       .  A
C2002      C2224   1.467       .  S
C2003      H2006   1.082       .  S
Fe2007     O2023   2.053       .  S
Fe2007     O2013   2.054       .  S
Fe2008     O2019   2.076       .  S
Fe2008     O2024   2.069       .  S
Fe2008     O2018   1.980       .  S
Fe2009     O2014   2.070       .  S
Fe2009     O2010   2.054       .  S
Fe2009     O2018   1.976       .  S
O2010      C2017   1.268       .  A
O2011      C2025   1.270       .  A
O2012      C2017   1.265       .  A
O2013      C2016   1.266       .  A
O2014      C2026   1.270       .  A
O2015      C2028   1.267       .  A
C2016      C2237   1.489       .  S
C2016      O2021   1.270       .  A
C2017      C2227   1.490       .  S
O2019      C2022   1.272       .  A
O2020      C2022   1.269       .  A
C2022      C2204   1.473       .  S
O2023      C2028   1.264       .  A
O2024      C2026   1.267       .  A
C2025      C2257   1.481       .  S
C2025      O2027   1.267       .  A
C2026      C2264   1.498       .  S
C2028      C2194   1.487       .  S
C2029      C2187   1.493       .  S
C2030      C2031   1.404       .  A
C2030      H2035   1.082       .  S
C2031      C2032   1.402       .  A
C2031      C2207   1.478       .  S
C2032      C2033   1.397       .  A
C2032      H2036   1.084       .  S
C2033      C2034   1.400       .  A
C2033      C2197   1.484       .  S
C2034      H2037   1.083       .  S
Fe2038     O2054   2.072       .  S
Fe2038     O2044   2.067       .  S
Fe2039     O2050   2.077   1_554  S
Fe2039     O2055   2.056   1_554  S
Fe2039     O2049   1.982       .  S
Fe2040     O2045   2.080   1_554  S
Fe2040     O2041   2.055   1_554  S
Fe2040     O2049   1.984       .  S
O2041      C2048   1.269       .  A
O2042      C2056   1.270       .  A
O2043      C2048   1.268       .  A
O2044      C2047   1.268       .  A
O2045      C2057   1.269       .  A
O2046      C2059   1.264       .  A
C2047      C2124   1.498       .  S
C2047      O2052   1.272       .  A
C2048      C2134   1.494       .  S
O2050      C2053   1.271       .  A
O2051      C2053   1.269       .  A
C2053      C2144   1.482       .  S
O2054      C2059   1.272       .  A
O2055      C2057   1.266       .  A
C2056      C2177   1.459       .  S
C2056      O2058   1.265       .  A
C2057      C2167   1.477       .  S
C2059      C2154   1.490       .  S
C2060      C2061   1.407   1_655  A
C2060      C2065   1.415       .  A
C2060      C2117   1.496       .  S
C2061      C2062   1.396       .  A
C2061      H2066   1.084       .  S
C2063      H2067   1.084       .  S
C2064      C2065   1.411   1_455  A
C2065      H2068   1.081       .  S
C2069      C2070   1.417       .  A
C2069      C2074   1.399       .  A
C2069      C2104   1.487       .  S
C2070      C2071   1.407       .  A
C2070      H2075   1.082       .  S
C2071      C2072   1.409       .  A
C2071      C2157   1.506       .  S
C2072      C2073   1.406       .  A
C2072      H2076   1.083       .  S
C2073      C2074   1.402       .  A
C2073      C2147   1.477       .  S
C2074      H2077   1.084       .  S
C2078      C2079   1.407       .  A
C2078      C2083   1.413       .  A
C2078      C2097   1.494       .  S
C2079      C2080   1.402       .  A
C2079      H2084   1.083       .  S
C2080      C2081   1.399       .  A
C2080      C2137   1.473       .  S
C2081      C2082   1.401       .  A
C2081      H2085   1.084       .  S
C2082      C2083   1.406       .  A
C2082      C2127   1.488       .  S
C2083      H2086   1.083       .  S
C2087      C2088   1.447       .  A
C2088      C2089   1.425       .  A
C2088      C2107   1.496       .  S
C2089      C2090   1.409       .  A
C2089      C2214   1.496       .  S
C2090      C2091   1.418       .  A
C2090      C2114   1.508       .  S
C2092      C2094   1.506       .  S
C2093      C2094   1.405       .  A
C2093      H2100   1.083       .  S
C2095      C2096   1.398       .  A
C2095     Br2102   1.918       .  S
C2096      C2097   1.404       .  A
C2096      H2101   1.083       .  S
C2097      C2098   1.416       .  A
C2103      C2104   1.409       .  A
C2103      C2108   1.415       .  A
C2103      H2110   1.083       .  S
C2104      C2105   1.394       .  A
C2105      C2106   1.381       .  A
C2105     Br2112   1.909       .  S
C2106      C2107   1.399       .  A
C2106      H2111   1.074       .  S
C2107      C2108   1.421       .  A
C2113      C2114   1.408       .  A
C2113      C2118   1.402       .  A
C2114      C2115   1.414       .  A
C2115      C2116   1.394       .  A
C2115     Br2122   1.923       .  S
C2116      C2117   1.408       .  A
C2116      H2121   1.083       .  S
C2117      C2118   1.414       .  A
C2123      C2124   1.410       .  A
C2123      C2128   1.401       .  A
C2123      H2130   1.083       .  S
C2124      C2125   1.420       .  A
C2125      C2126   1.402       .  A
C2125     Br2132   1.923       .  S
C2126      C2127   1.403       .  A
C2126      H2131   1.084       .  S
C2127      C2128   1.409       .  A
C2128     Br2129   1.921       .  S
C2133      C2134   1.410       .  A
C2133      C2138   1.394       .  A
C2133      H2140   1.082       .  S
C2134      C2135   1.422       .  A
C2135      C2136   1.404       .  A
C2135     Br2142   1.922       .  S
C2136      C2137   1.400       .  A
C2136      H2141   1.083       .  S
C2137      C2138   1.403       .  A
C2138     Br2139   1.920       .  S
C2143      C2144   1.406       .  A
C2143      C2148   1.397       .  A
C2143      H2150   1.083       .  S
C2144      C2145   1.413       .  A
C2145      C2146   1.403       .  A
C2145     Br2152   1.919       .  S
C2146      C2147   1.403       .  A
C2146      H2151   1.083       .  S
C2147      C2148   1.407       .  A
C2148     Br2149   1.920       .  S
C2153      C2154   1.397       .  A
C2153      C2158   1.394       .  A
C2153      H2160   1.084       .  S
C2154      C2155   1.416       .  A
C2155      C2156   1.406       .  A
C2155     Br2162   1.920       .  S
C2156      C2157   1.410       .  A
C2156      H2161   1.083       .  S
C2157      C2158   1.420       .  A
C2158     Br2159   1.904       .  S
C2163      C2164   1.407       .  A
C2163      C2168   1.392       .  A
C2163      H2170   1.084       .  S
C2164      C2165   1.412       .  A
C2165      C2166   1.409       .  A
C2165     Br2172   1.917       .  S
C2166      C2167   1.407       .  A
C2166      H2171   1.084       .  S
C2167      C2168   1.406       .  A
C2168     Br2169   1.922       .  S
C2173      C2174   1.406       .  A
C2173      C2178   1.391       .  A
C2173      H2180   1.084       .  S
C2174      C2175   1.416       .  A
C2175      C2176   1.400       .  A
C2176      C2177   1.400       .  A
C2176      H2181   1.084       .  S
C2177      C2178   1.403       .  A
C2178     Br2179   1.920       .  S
C2183      C2188   1.401       .  A
C2183      H2190   1.083       .  S
C2184      C2185   1.411       .  A
C2185      C2186   1.391       .  A
C2186      C2187   1.405   1_565  A
C2186      H2191   1.083       .  S
C2188     Br2189   1.921       .  S
C2193      C2194   1.408       .  A
C2193      C2198   1.400       .  A
C2193      H2200   1.083       .  S
C2194      C2195   1.417       .  A
C2195      C2196   1.396       .  A
C2195     Br2202   1.924       .  S
C2196      C2197   1.402       .  A
C2196      H2201   1.083       .  S
C2197      C2198   1.411       .  A
C2198     Br2199   1.921       .  S
C2203      C2204   1.406       .  A
C2203      C2208   1.403       .  A
C2203      H2210   1.084       .  S
C2204      C2205   1.409       .  A
C2205      C2206   1.391       .  A
C2205     Br2212   1.920       .  S
C2206      C2207   1.402       .  A
C2206      H2211   1.084       .  S
C2207      C2208   1.409       .  A
C2208     Br2209   1.918       .  S
C2213      C2214   1.397       .  A
C2213      C2218   1.387       .  A
C2213      H2220   1.082       .  S
C2214      C2215   1.405       .  A
C2215      C2216   1.402       .  A
C2215     Br2222   1.917       .  S
C2216      C2217   1.414       .  A
C2216      H2221   1.082       .  S
C2217      C2218   1.417       .  A
C2218     Br2219   1.929       .  S
C2223      C2224   1.398       .  A
C2223      C2228   1.402       .  A
C2223      H2230   1.083       .  S
C2224      C2225   1.403       .  A
C2225      C2226   1.391       .  A
C2225     Br2232   1.922       .  S
C2226      C2227   1.408       .  A
C2226      H2231   1.083       .  S
C2227      C2228   1.423       .  A
C2228     Br2229   1.923       .  S
C2233      C2234   1.399       .  A
C2233      C2238   1.397       .  A
C2233      H2240   1.084       .  S
C2234      C2235   1.402       .  A
C2235      C2236   1.397       .  A
C2235     Br2242   1.919       .  S
C2236      C2237   1.411       .  A
C2236      H2241   1.083       .  S
C2237      C2238   1.420       .  A
C2238     Br2239   1.924       .  S
C2243      C2244   1.413       .  A
C2243      C2248   1.392       .  A
C2244      C2245   1.419       .  A
C2245      C2246   1.408       .  A
C2245     Br2252   1.911       .  S
C2246      C2247   1.403       .  A
C2246      H2251   1.083       .  S
C2247      C2248   1.400       .  A
C2248     Br2249   1.924       .  S
C2253      C2254   1.405       .  A
C2253      C2258   1.396       .  A
C2253      H2260   1.083       .  S
C2254      C2255   1.407       .  A
C2255      C2256   1.398       .  A
C2255     Br2262   1.920       .  S
C2256      C2257   1.409       .  A
C2256      H2261   1.083       .  S
C2257      C2258   1.412       .  A
C2258     Br2259   1.922       .  S
C2263      C2264   1.411       .  A
C2263      C2268   1.399       .  A
C2263      H2270   1.083       .  S
C2264      C2265   1.422       .  A
C2265      C2266   1.403       .  A
C2265     Br2272   1.923       .  S
C2266      C2267   1.401       .  A
C2266      H2271   1.084       .  S
C2267      C2268   1.405       .  A
C2268     Br2269   1.919       .  S
