geometry optimzed in LAMMPS
_audit_creation_date              2020-11-30 
_audit_creation_method            'lammps2cif' 
_symmetry_space_group_name_H-M    'P1' 
_symmetry_Int_Tables_number       1 
_symmetry_cell_setting            triclinic 
loop_ 
_symmetry_equiv_pos_as_xyz 
  x,y,z 
_cell_length_a                    34.06007552 
_cell_length_b                    34.132816382914655 
_cell_length_c                    37.81934810347267 
_cell_angle_alpha                 89.42801030895271 
_cell_angle_beta                  90.24127886902599 
_cell_angle_gamma                 89.53762288881778 
loop_ 
_atom_site_label 
_atom_site_type_symbol 
_atom_site_fract_x 
_atom_site_fract_y 
_atom_site_fract_z 
_atom_site_charge 
O1          O  0.99669203  0.97287986  0.04893846    -0.71800
O2          O  0.89053494  0.96857597  0.01646702    -0.72000
O3          O  0.94010635  0.91846696  0.04933123    -0.71900
O4          O  0.94736425  0.02353378  0.01621108    -0.71900
O5          O  0.96851001  0.00293639  0.96561048    -0.71900
O6          O  0.95873161  0.89752586  0.99802634    -0.71900
O7          O  0.91125271  0.94950389  0.96518578    -0.71800
O8          O  0.01647246  0.95115383  0.99828517    -0.72000
V9          V  0.94406996  0.97053405  0.03174821     1.35200
V10         V  0.96339775  0.95066875  0.98280660     1.35200
C11         C  0.02472857  0.96252154  0.02914140     0.77400
C12         C  0.88287688  0.95821475  0.98512767     0.77500
C13         C  0.94752903  0.89001407  0.02923079     0.77300
C14         C  0.95934505  0.03128681  0.98531434     0.77300
O15         O  0.56607077  0.49468546  0.79720008    -0.71800
O16         O  0.56900150  0.39263630  0.75699624    -0.72000
O17         O  0.61880920  0.43598745  0.79428942    -0.71900
O18         O  0.51546862  0.45073516  0.75989910    -0.71900
O19         O  0.53834410  0.47202950  0.70987692    -0.71900
O20         O  0.64227404  0.46356316  0.74706171    -0.71900
O21         O  0.59551574  0.41738988  0.70972041    -0.71800
O22         O  0.58569868  0.51930480  0.74724816    -0.72000
V23         V  0.56765517  0.44412021  0.77617312     1.35200
V24         V  0.58986919  0.46776053  0.72939036     1.35200
C25         C  0.57553366  0.52445380  0.77897603     0.77400
C26         C  0.58476621  0.38763776  0.72712344     0.77500
C27         C  0.64826948  0.44661862  0.77655494     0.77300
C28         C  0.50915395  0.46243638  0.72859852     0.77300
C29         C  0.31098428  0.95158135  0.10636408     0.86400
C30         C  0.33638745  0.95461220  0.07325227    -0.53800
C31         C  0.37565620  0.94945851  0.07890918     0.09400
C32         C  0.38638002  0.94280405  0.11830100     0.20300
C33         C  0.32244373  0.91203979  0.12359570    -0.54500
C34         C  0.36180149  0.90717079  0.12994432     0.09500
C35         C  0.32823975  0.98196973  0.13183292    -0.54100
C36         C  0.36753093  0.97732605  0.13810909     0.10000
H37         H  0.32388110  0.95931089  0.04706026     0.14600
H38         H  0.41823846  0.93913482  0.12372784     0.00300
H39         H  0.30105133  0.88959679  0.12951732     0.14900
H40         H  0.31133667  0.00381667  0.14583659     0.14600
C41         C  0.44531273  0.22319080  0.36040573     0.86400
C42         C  0.44529731  0.19952692  0.32604925    -0.53800
C43         C  0.44339173  0.15990540  0.33089942     0.09400
C44         C  0.44132716  0.14733435  0.37001849     0.20300
C45         C  0.40785259  0.20945534  0.37961857    -0.54500
C46         C  0.40588588  0.16982654  0.38454511     0.09500
C47         C  0.47902178  0.20575738  0.38280327    -0.54100
C48         C  0.47682786  0.16617764  0.38795553     0.10000
H49         H  0.44604395  0.21316147  0.29998685     0.14600
H50         H  0.43980766  0.11521649  0.37451474     0.00300
H51         H  0.38405809  0.22822928  0.38803009     0.14900
H52         H  0.50138927  0.22356872  0.39519304     0.14600
C53         C  0.58899143  0.80581446  0.86239523     0.86400
C54         C  0.58651385  0.83012302  0.82807250    -0.53800
C55         C  0.59042477  0.86953713  0.83250706     0.09400
C56         C  0.59431059  0.88160155  0.87141605     0.20300
C57         C  0.62737277  0.81884933  0.88044575    -0.54500
C58         C  0.63048426  0.85853550  0.88484532     0.09500
C59         C  0.55651625  0.82332808  0.88581410    -0.54100
C60         C  0.55947826  0.86278948  0.89072505     0.10000
H61         H  0.58403332  0.81692192  0.80215603     0.14600
H62         H  0.59650851  0.91373482  0.87510432     0.00300
H63         H  0.64991875  0.79820308  0.88909248     0.14900
H64         H  0.53380300  0.80678022  0.89894406     0.14600
C65         C  0.72478972  0.09070707  0.60561355     0.86400
C66         C  0.69628475  0.08587991  0.57456836    -0.53800
C67         C  0.65738674  0.08636262  0.58354861     0.09400
C68         C  0.65079444  0.09099688  0.62371606     0.20300
C69         C  0.71089836  0.12889392  0.62341855    -0.54500
C70         C  0.67232934  0.12882332  0.63272291     0.09500
C71         C  0.71392479  0.05842671  0.63215847    -0.54100
C72         C  0.67529714  0.05824993  0.64175411     0.10000
H73         H  0.70643251  0.08477100  0.54741685     0.14600
H74         H  0.61974104  0.09157859  0.63211397     0.00300
H75         H  0.72860329  0.15443305  0.62825422     0.14900
H76         H  0.73533843  0.03757810  0.64261184     0.14600
O77         O  0.06051952  0.04387376  0.45757567    -0.71800
O78         O  0.07283073  0.14778324  0.49107004    -0.72000
O79         O  0.11862173  0.09619939  0.45818075    -0.71900
O80         O  0.01398264  0.09541925  0.49061062    -0.71900
O81         O  0.03342462  0.07138230  0.54109927    -0.71900
O82         O  0.13873589  0.07418271  0.50922419    -0.71900
O83         O  0.09188541  0.12448391  0.54197698    -0.71800
O84         O  0.08123862  0.02109911  0.50808672    -0.72000
V85         V  0.06671151  0.09534828  0.47537999     1.35200
V86         V  0.08577213  0.07320595  0.52416175     1.35200
C87         C  0.06961232  0.01470700  0.47692407     0.77400
C88         C  0.08603261  0.15377389  0.52184241     0.77500
C89         C  0.14663403  0.08632738  0.47843319     0.77300
C90         C  0.00565615  0.08285659  0.52115749     0.77300
O91         O  0.46801190  0.53482325  0.29635112    -0.71800
O92         O  0.45990135  0.63848112  0.25843480    -0.72000
O93         O  0.41225046  0.59089079  0.29461194    -0.71900
O94         O  0.51620433  0.58298677  0.26016304    -0.71900
O95         O  0.49428697  0.56016735  0.21062246    -0.71900
O96         O  0.38987458  0.56778470  0.24531313    -0.71900
O97         O  0.43785916  0.61510554  0.20911177    -0.71800
O98         O  0.44633665  0.51205925  0.24667274    -0.72000
V99         V  0.46373673  0.58625540  0.27645255     1.35200
V100        V  0.44254080  0.56408360  0.22894663     1.35200
C101        C  0.45836626  0.50567385  0.27787162     0.77400
C102        C  0.44722090  0.64445466  0.22729301     0.77500
C103        C  0.38322701  0.58157113  0.27567825     0.77300
C104        C  0.52307134  0.57111339  0.22924167     0.77300
C105        C  0.22771096  0.45392397  0.64065423     0.86400
C106        C  0.20067006  0.45642932  0.67292851    -0.53800
C107        C  0.16142890  0.45400745  0.66546980     0.09400
C108        C  0.15281257  0.44943755  0.62555324     0.20300
C109        C  0.21597912  0.41578613  0.62213780    -0.54500
C110        C  0.17690137  0.41337666  0.61464308     0.09500
C111        C  0.21261756  0.48624484  0.61519853    -0.54100
C112        C  0.17367033  0.48370148  0.60707291     0.10000
H113        H  0.21224193  0.45717451  0.69968448     0.14600
H114        H  0.12122655  0.44732120  0.61856169     0.00300
H115        H  0.23658178  0.39244222  0.61590034     0.14900
H116        H  0.23080759  0.50762317  0.60196815     0.14600
C117        C  0.95772839  0.31483692  0.89961162     0.86400
C118        C  0.95946900  0.34395321  0.93023920    -0.53800
C119        C  0.95411512  0.38262831  0.92096100     0.09400
C120        C  0.94789044  0.38819297  0.88058778     0.20300
C121        C  0.91823370  0.32359484  0.88112325    -0.54500
C122        C  0.91294915  0.36186111  0.87165154     0.09500
C123        C  0.98869573  0.32995845  0.87314816    -0.54100
C124        C  0.98331216  0.36816619  0.86299172     0.10000
H125        H  0.96260008  0.33385520  0.95738606     0.14600
H126        H  0.94419098  0.41875127  0.87127767     0.00300
H127        H  0.89578208  0.30167869  0.87693013     0.14900
H128        H  0.01180134  0.31237361  0.86163345     0.14600
C129        C  0.08603238  0.73624414  0.39032767     0.86400
C130        C  0.08581384  0.70852484  0.42257362    -0.53800
C131        C  0.08744455  0.66976562  0.41437371     0.09400
C132        C  0.08926620  0.66192527  0.37451233     0.20300
C133        C  0.12378476  0.72396690  0.37047488    -0.54500
C134        C  0.12536306  0.68500992  0.36210884     0.09500
C135        C  0.05244166  0.72266448  0.36659729    -0.54100
C136        C  0.05407554  0.68400520  0.35799079     0.10000
H137        H  0.08719519  0.71874975  0.44966368     0.14600
H138        H  0.09046887  0.63037885  0.36778596     0.00300
H139        H  0.14853654  0.74293418  0.36582083     0.14900
H140        H  0.02972531  0.74244905  0.35663946     0.14600
C141        C  0.80280763  0.58583013  0.14222685     0.86400
C142        C  0.82668842  0.58672069  0.17669570    -0.53800
C143        C  0.86610113  0.59078507  0.17205364     0.09400
C144        C  0.87849042  0.59306751  0.13304657     0.20300
C145        C  0.81499489  0.62407742  0.12303083    -0.54500
C146        C  0.85452444  0.62775182  0.11788585     0.09500
C147        C  0.82144982  0.55296912  0.12030641    -0.54100
C148        C  0.86101647  0.55669019  0.11532951     0.10000
H149        H  0.81325482  0.58649328  0.20269898     0.14600
H150        H  0.91067422  0.59573978  0.12938341     0.00300
H151        H  0.79521369  0.64784018  0.11627178     0.14900
H152        H  0.80428592  0.53000364  0.10817532     0.14600
C153        C  0.91029519  0.64275947  0.25046412    -0.27700
C154        C  0.94600099  0.62260608  0.25479025     0.01900
C155        C  0.95480753  0.59074054  0.23277501     0.30000
C156        C  0.92834153  0.58007947  0.20610715    -0.19500
C157        C  0.89280838  0.60059499  0.20153842    -0.28900
C158        C  0.88382640  0.63208208  0.22406948     0.44100
C159        C  0.97484186  0.63716919  0.28065961     0.05200
O160        O  0.98950742  0.57046550  0.23664266    -0.57400
H161        H  0.93562714  0.55597476  0.18883564     0.18200
O162        O  0.84987092  0.65353239  0.21973269    -0.64100
H163        H  0.90334257  0.66745537  0.26717476     0.16600
C164        C  0.99155316  0.67433161  0.27582403     0.28900
C165        C  0.01765196  0.68879374  0.30095327    -0.25000
C166        C  0.02704656  0.66695165  0.33156110    -0.24300
C167        C  0.01046613  0.62959068  0.33632700     0.40300
C168        C  0.98472356  0.61478883  0.31076211    -0.26700
O169        O  0.98322479  0.69629189  0.24609995    -0.58600
H170        H  0.03072120  0.71722209  0.29637189     0.16000
O171        O  0.01827899  0.60783009  0.36623478    -0.60000
H172        H  0.97169533  0.58625296  0.31482948     0.14400
H173        H  0.85562800  0.67278808  0.20069145     0.46300
H174        H  0.96283345  0.71540320  0.25347076     0.41700
H175        H  0.99696439  0.61459107  0.38294781     0.45100
H176        H  0.00895538  0.58558028  0.22277123     0.36600
C177        C  0.91916064  0.47291066  0.97236552    -0.27700
C178        C  0.93359806  0.46408956  0.00625985     0.01900
C179        C  0.95919440  0.43204654  0.01080119     0.30000
C180        C  0.96786283  0.40780677  0.98217520    -0.19500
C181        C  0.95045828  0.41407681  0.94856616    -0.28900
C182        C  0.92715357  0.44836493  0.94357253     0.44100
C183        C  0.91952183  0.48709307  0.03683395     0.05200
O184        O  0.97517837  0.42361077  0.04336655    -0.57400
H185        H  0.98777461  0.38343032  0.98680492     0.18200
O186        O  0.91201213  0.45829633  0.91094695    -0.64100
H187        H  0.90004898  0.49813531  0.96846966     0.16600
C188        C  0.92575523  0.52770445  0.03861901     0.28900
C189        C  0.90816192  0.54962813  0.06547686    -0.25000
C190        C  0.88348036  0.53171370  0.09042049    -0.24300
C191        C  0.87863330  0.49073039  0.08952490     0.40300
C192        C  0.89663847  0.46876366  0.06289975    -0.26700
O193        O  0.94893551  0.54617049  0.01411972    -0.58600
H194        H  0.91237968  0.58104966  0.06571020     0.16000
O195        O  0.85573655  0.47194335  0.11404259    -0.60000
H196        H  0.89156432  0.43749656  0.06182091     0.14400
H197        H  0.88413411  0.46573167  0.91434421     0.46300
H198        H  0.93040822  0.55914313  0.99734276     0.41700
H199        H  0.87255177  0.46905994  0.13539505     0.45100
H200        H  0.00080517  0.43719412  0.04363292     0.36600
C201        C  0.10970032  0.45772092  0.75480904    -0.27700
C202        C  0.08015697  0.42982982  0.75012903     0.01900
C203        C  0.07506363  0.41310678  0.71653801     0.30000
C204        C  0.10018682  0.42312594  0.68873671    -0.19500
C205        C  0.13129315  0.44930533  0.69380762    -0.28900
C206        C  0.13492493  0.46774824  0.72700094     0.44100
C207        C  0.05560420  0.41718772  0.78051917     0.05200
O208        O  0.04659649  0.38562684  0.71095237    -0.57400
H209        H  0.09632100  0.40865626  0.66366714     0.18200
O210        O  0.16313317  0.49543182  0.73275508    -0.64100
H211        H  0.11341376  0.47158269  0.78023803     0.16600
C212        C  0.07279192  0.40051884  0.81118149     0.28900
C213        C  0.04897317  0.38521560  0.83806086    -0.25000
C214        C  0.00788165  0.38712741  0.83535664    -0.24300
C215        C  0.99075000  0.40520367  0.80531018     0.40300
C216        C  0.01454664  0.41970946  0.77809746    -0.26700
O217        O  0.11281016  0.39700579  0.81418671    -0.58600
H218        H  0.06265088  0.37144578  0.86097900     0.16000
O219        O  0.95080031  0.40645543  0.80110044    -0.60000
H220        H  0.00085160  0.43244612  0.75471400     0.14400
H221        H  0.15076258  0.52070752  0.72562024     0.46300
H222        H  0.12085173  0.41861937  0.82991601     0.41700
H223        H  0.94299453  0.43385995  0.80619832     0.45100
H224        H  0.05873396  0.36027798  0.71822882     0.36600
C225        C  0.14503241  0.61232471  0.48296908    -0.27700
C226        C  0.11757746  0.58445337  0.49416993     0.01900
C227        C  0.07995133  0.58428279  0.47849677     0.30000
C228        C  0.07027077  0.61190969  0.45207508    -0.19500
C229        C  0.09777110  0.63985628  0.44128103    -0.28900
C230        C  0.13537791  0.63983999  0.45675222     0.44100
C231        C  0.12916818  0.55565835  0.52192906     0.05200
O232        O  0.05260309  0.55720510  0.48868923    -0.57400
H233        H  0.04124802  0.61178422  0.44027500     0.18200
O234        O  0.16318010  0.66611066  0.44575884    -0.64100
H235        H  0.17404327  0.61292448  0.49480685     0.16600
C236        C  0.16256828  0.53176625  0.51733323     0.28900
C237        C  0.17578098  0.50759279  0.54497036    -0.25000
C238        C  0.15632800  0.50694734  0.57760754    -0.24300
C239        C  0.12200218  0.52951686  0.58186332     0.40300
C240        C  0.10866809  0.55387915  0.55409708    -0.26700
O241        O  0.18216992  0.53158043  0.48569286    -0.58600
H242        H  0.20175854  0.48962881  0.54106086     0.16000
O243        O  0.10289018  0.52992152  0.61369739    -0.60000
H244        H  0.08313330  0.57241626  0.55809186     0.14400
H245        H  0.16195568  0.68779192  0.46298936     0.46300
H246        H  0.20677278  0.54617843  0.48996659     0.41700
H247        H  0.08075344  0.51149606  0.61095073     0.45100
H248        H  0.05935869  0.53312205  0.47550362     0.36600
C249        C  0.29714984  0.60941871  0.33388980    -0.27700
C250        C  0.26675781  0.61255751  0.30895176     0.01900
C251        C  0.27392340  0.60233625  0.27363307     0.30000
C252        C  0.31156925  0.59026387  0.26344147    -0.19500
C253        C  0.34262710  0.58877645  0.28807703    -0.28900
C254        C  0.33483731  0.59774808  0.32377208     0.44100
C255        C  0.22861189  0.62913367  0.31993825     0.05200
O256        O  0.24465784  0.60526450  0.24870840    -0.57400
H257        H  0.31678391  0.58364074  0.23589520     0.18200
O258        O  0.36408379  0.59670526  0.34881388    -0.64100
H259        H  0.29195305  0.61745013  0.36113641     0.16600
C260        C  0.20571834  0.61008708  0.34556645     0.28900
C261        C  0.17185253  0.62831335  0.35847650    -0.25000
C262        C  0.16035893  0.66575635  0.34628982    -0.24300
C263        C  0.18283049  0.68426661  0.31974899     0.40300
C264        C  0.21672113  0.66595706  0.30688777    -0.26700
O265        O  0.21612664  0.57349794  0.35789091    -0.58600
H266        H  0.15533965  0.61346512  0.37892712     0.16000
O267        O  0.17216338  0.72025985  0.30625797    -0.60000
H268        H  0.23432765  0.68095034  0.28724548     0.14400
H269        H  0.36324072  0.56991982  0.35913325     0.46300
H270        H  0.22876747  0.57787809  0.38118362     0.41700
H271        H  0.15269760  0.71474224  0.28742857     0.45100
H272        H  0.23038624  0.58011148  0.25028130     0.36600
C273        C  0.63378378  0.58255386  0.22077025    -0.27700
C274        C  0.63964503  0.57200858  0.18548947     0.01900
C275        C  0.60739322  0.56116164  0.16465080     0.30000
C276        C  0.56975451  0.56028414  0.17940279    -0.19500
C277        C  0.56354629  0.57094971  0.21481214    -0.28900
C278        C  0.59611731  0.58257495  0.23540440     0.44100
C279        C  0.67963488  0.57324054  0.17071740     0.05200
O280        O  0.61259702  0.55050762  0.13009934    -0.57400
H281        H  0.54533930  0.55157822  0.16288726     0.18200
O282        O  0.59168572  0.59382548  0.26988561    -0.64100
H283        H  0.65851520  0.59135429  0.23688835     0.16600
C284        C  0.69081485  0.60380141  0.14798589     0.28900
C285        C  0.72994152  0.60699936  0.13730913    -0.25000
C286        C  0.75887721  0.57997039  0.14922757    -0.24300
C287        C  0.74644027  0.54749563  0.16981629     0.40300
C288        C  0.70728732  0.54467745  0.18074514    -0.26700
O289        O  0.66403858  0.63189697  0.13752996    -0.58600
H290        H  0.73669390  0.63116373  0.11997042     0.16000
O291        O  0.77255724  0.51850533  0.17966074    -0.60000
H292        H  0.69861227  0.52043514  0.19762208     0.14400
H293        H  0.58879470  0.62275280  0.26888544     0.46300
H294        H  0.65714793  0.62538827  0.11279976     0.41700
H295        H  0.77720706  0.52213107  0.20534584     0.45100
H296        H  0.60340612  0.57330855  0.11583302     0.36600
C297        C  0.09399572  0.26481926  0.52890164    -0.27700
C298        C  0.12150017  0.26819836  0.55651305     0.01900
C299        C  0.13756310  0.23373455  0.57179601     0.30000
C300        C  0.12475626  0.19705423  0.56083757    -0.19500
C301        C  0.09688348  0.19353552  0.53362958    -0.28900
C302        C  0.08200681  0.22787513  0.51716412     0.44100
C303        C  0.13255040  0.30727991  0.57040914     0.05200
O304        O  0.16618665  0.23550995  0.59735766    -0.57400
H305        H  0.13756738  0.17114535  0.57318578     0.18200
O306        O  0.05564325  0.22577431  0.48975928    -0.64100
H307        H  0.08117589  0.29083143  0.51680432     0.16600
C308        C  0.14460102  0.33823170  0.54798022     0.28900
C309        C  0.15798506  0.37338249  0.56260905    -0.25000
C310        C  0.15948598  0.37801305  0.59936019    -0.24300
C311        C  0.14664690  0.34768276  0.62164527     0.40300
C312        C  0.13259889  0.31303911  0.60716964    -0.26700
O313        O  0.14571041  0.33355758  0.51201437    -0.58600
H314        H  0.16820378  0.39663166  0.54531547     0.16000
O315        O  0.14856124  0.35127198  0.65769410    -0.60000
H316        H  0.12261606  0.29008679  0.62487899     0.14400
H317        H  0.02944234  0.22547559  0.50108223     0.46300
H318        H  0.12353259  0.34958272  0.50257454     0.41700
H319        H  0.17534310  0.34222738  0.66437820     0.45100
H320        H  0.19118282  0.23826347  0.58425358     0.36600
C321        C  0.04496218  0.82964171  0.43253774    -0.27700
C322        C  0.07085200  0.85828315  0.42040618     0.01900
C323        C  0.10103711  0.84790719  0.39709226     0.30000
C324        C  0.10607025  0.80877459  0.38723501    -0.19500
C325        C  0.08100026  0.77929429  0.40026156    -0.28900
C326        C  0.04928190  0.79068489  0.42213199     0.44100
C327        C  0.06828281  0.89816845  0.43474344     0.05200
O328        O  0.12693417  0.87558558  0.38515939    -0.57400
H329        H  0.12950721  0.80234989  0.36909371     0.18200
O330        O  0.02291149  0.76363367  0.43439815    -0.64100
H331        H  0.02148369  0.83749792  0.45044300     0.16600
C332        C  0.05621641  0.93023327  0.41370876     0.28900
C333        C  0.05570709  0.96794505  0.42802345    -0.25000
C334        C  0.06776422  0.97423865  0.46315417    -0.24300
C335        C  0.07947462  0.94166238  0.48415619     0.40300
C336        C  0.07926015  0.90406780  0.46994925    -0.26700
O337        O  0.04416425  0.92479752  0.37945754    -0.58600
H338        H  0.04641450  0.99233214  0.41136847     0.16000
O339        O  0.09145402  0.94606299  0.51854730    -0.60000
H340        H  0.08862343  0.87941216  0.48628072     0.14400
H341        H  0.00003031  0.76576469  0.41816846     0.46300
H342        H  0.06596521  0.93453649  0.36456012     0.41700
H343        H  0.12045556  0.94795999  0.51746831     0.45100
H344        H  0.11893211  0.88128680  0.36038711     0.36600
C345        C  0.89606591  0.10126705  0.52681126    -0.27700
C346        C  0.88647069  0.07965912  0.55711457     0.01900
C347        C  0.91574172  0.05817735  0.57521229     0.30000
C348        C  0.95452498  0.05921301  0.56319529    -0.19500
C349        C  0.96445119  0.08148178  0.53307052    -0.28900
C350        C  0.93460410  0.10217887  0.51458864     0.44100
C351        C  0.84617271  0.08205134  0.57065310     0.05200
O352        O  0.90681780  0.03669907  0.60491278    -0.57400
H353        H  0.97685016  0.04273490  0.57757357     0.18200
O354        O  0.94291986  0.12473223  0.48539092    -0.64100
H355        H  0.87356940  0.11796743  0.51283599     0.16600
C356        C  0.83190160  0.11743304  0.58420732     0.28900
C357        C  0.79321590  0.12024761  0.59588736    -0.25000
C358        C  0.76760103  0.08805657  0.59379217    -0.24300
C359        C  0.78222844  0.05267765  0.57930301     0.40300
C360        C  0.82130890  0.04983548  0.56823805    -0.26700
O361        O  0.85586506  0.14945099  0.58648460    -0.58600
H362        H  0.78399546  0.14829583  0.60568597     0.16000
O363        O  0.75808636  0.02108127  0.57480920    -0.60000
H364        H  0.83199121  0.02268310  0.55703691     0.14400
H365        H  0.93619338  0.10822667  0.46484214     0.46300
H366        H  0.84995203  0.16543245  0.56504127     0.41700
H367        H  0.76682419  0.00135756  0.59267157     0.45100
H368        H  0.90960998  0.05514384  0.62485800     0.36600
C369        C  0.63603902  0.91297252  0.74974186    -0.27700
C370        C  0.61944556  0.95058218  0.74901576     0.01900
C371        C  0.59231473  0.96137682  0.77518775     0.30000
C372        C  0.58209275  0.93444242  0.80179445    -0.19500
C373        C  0.59884118  0.89670585  0.80264478    -0.28900
C374        C  0.62630493  0.88625800  0.77638369     0.44100
C375        C  0.63292596  0.97896669  0.72212401     0.05200
O376        O  0.57646630  0.99843243  0.77545133    -0.57400
H377        H  0.56146354  0.94318721  0.82202143     0.18200
O378        O  0.64524446  0.85065727  0.77730940    -0.64100
H379        H  0.65747009  0.90466363  0.73002297     0.16600
C380        C  0.67132100  0.99350839  0.72364461     0.28900
C381        C  0.68432049  0.01970273  0.69774508    -0.25000
C382        C  0.65993317  0.03087325  0.66919366    -0.24300
C383        C  0.62156816  0.01555080  0.66739294     0.40300
C384        C  0.60816354  0.99025129  0.69407939    -0.26700
O385        O  0.69607799  0.98287413  0.75085934    -0.58600
H386        H  0.71363079  0.03142495  0.70026277     0.16000
O387        O  0.59725335  0.02402631  0.63931121    -0.60000
H388        H  0.57873554  0.97856873  0.69242035     0.14400
H389        H  0.66684867  0.85363045  0.79477343     0.46300
H390        H  0.71222148  0.96101080  0.74153148     0.41700
H391        H  0.60612971  0.00660241  0.62004976     0.45100
H392        H  0.59555196  0.01441388  0.78880908     0.36600
C393        C  0.48598541  0.32012938  0.32450238    -0.27700
C394        C  0.45715688  0.34738776  0.33422078     0.01900
C395        C  0.42512726  0.33482410  0.35453489     0.30000
C396        C  0.42165917  0.29522529  0.36397831    -0.19500
C397        C  0.44987049  0.26719965  0.35329882    -0.28900
C398        C  0.48283928  0.28062290  0.33415385     0.44100
C399        C  0.45927300  0.38809665  0.32051137     0.05200
O400        O  0.39562920  0.36057954  0.36320193    -0.57400
H401        H  0.39618739  0.28735374  0.37909438     0.18200
O402        O  0.51137374  0.25488783  0.32325500    -0.64100
H403        H  0.51082265  0.32945504  0.30880102     0.16600
C404        C  0.46052633  0.42046817  0.34325574     0.28900
C405        C  0.46102337  0.45862909  0.32915528    -0.25000
C406        C  0.46027525  0.46511630  0.29235426    -0.24300
C407        C  0.46003248  0.43244975  0.26972208     0.40300
C408        C  0.45974123  0.39446093  0.28387086    -0.26700
O409        O  0.46122442  0.41511793  0.37924112    -0.58600
H410        H  0.46134071  0.48318387  0.34708016     0.16000
O411        O  0.46093488  0.43721173  0.23367575    -0.60000
H412        H  0.45919255  0.36977561  0.26607304     0.14400
H413        H  0.53314709  0.25756106  0.34054934     0.46300
H414        H  0.48940346  0.41219537  0.38553187     0.41700
H415        H  0.43341819  0.43387126  0.22569928     0.45100
H416        H  0.39868501  0.36507335  0.38893369     0.36600
C417        C  0.56598845  0.11712926  0.53139366    -0.27700
C418        C  0.57377854  0.10045239  0.49845352     0.01900
C419        C  0.60672712  0.07588781  0.49467558     0.30000
C420        C  0.63204415  0.06932281  0.52337626    -0.19500
C421        C  0.62589411  0.08809356  0.55594915    -0.28900
C422        C  0.59194670  0.11175916  0.55983555     0.44100
C423        C  0.54932747  0.11213715  0.46768034     0.05200
O424        O  0.61519799  0.05931200  0.46268471    -0.57400
H425        H  0.65735029  0.05043117  0.51965258     0.18200
O426        O  0.58485560  0.13185697  0.59036510    -0.64100
H427        H  0.54088456  0.13649117  0.53448802     0.16600
C428        C  0.50839121  0.10683457  0.46791731     0.28900
C429        C  0.48524458  0.12298674  0.44075191    -0.25000
C430        C  0.50243305  0.14488490  0.41337341    -0.24300
C431        C  0.54349880  0.14863389  0.41226232     0.40300
C432        C  0.56667861  0.13227077  0.43930061    -0.26700
O433        O  0.49063608  0.08724517  0.49527909    -0.58600
H434        H  0.45363033  0.11996222  0.44198172     0.16000
O435        O  0.56111375  0.16913428  0.38538546    -0.60000
H436        H  0.59813904  0.13671339  0.43888606     0.14400
H437        H  0.59157103  0.15946825  0.58491034     0.46300
H438        H  0.49389924  0.05905918  0.48980813     0.41700
H439        H  0.56584412  0.14962277  0.36660251     0.45100
H440        H  0.60204912  0.03350499  0.46315568     0.36600
C441        C  0.25668403  0.10072634  0.47876595    -0.27700
C442        C  0.26364354  0.10733377  0.44268849     0.01900
C443        C  0.23241604  0.10445960  0.41836285     0.30000
C444        C  0.19482466  0.09573189  0.43031216    -0.19500
C445        C  0.18745920  0.09057455  0.46653021    -0.28900
C446        C  0.21883195  0.09294480  0.49086447     0.44100
C447        C  0.30265333  0.12035307  0.43078697     0.05200
O448        O  0.23795936  0.11179375  0.38300468    -0.57400
H449        H  0.17111064  0.09428468  0.41118970     0.18200
O450        O  0.21267541  0.08941622  0.52657205    -0.64100
H451        H  0.28047396  0.10288634  0.49774124     0.16600
C452        C  0.32012258  0.15368117  0.44558506     0.28900
C453        C  0.35478498  0.16831864  0.43130904    -0.25000
C454        C  0.37195965  0.15080990  0.40165733    -0.24300
C455        C  0.35503353  0.11683680  0.38745406     0.40300
C456        C  0.32094667  0.10154838  0.40239385    -0.26700
O457        O  0.30263481  0.17321574  0.47294719    -0.58600
H458        H  0.36763781  0.19420021  0.44282190     0.16000
O459        O  0.37017725  0.09951895  0.35787145    -0.60000
H460        H  0.30784326  0.07579947  0.39085860     0.14400
H461        H  0.20674122  0.11639472  0.53466375     0.46300
H462        H  0.28441613  0.19235574  0.46153446     0.41700
H463        H  0.35771756  0.11354126  0.33763036     0.45100
H464        H  0.23446896  0.14051388  0.38009278     0.36600
C465        C  0.46707643  0.95457418  0.02104461    -0.27700
C466        C  0.45484587  0.93328194  0.99145833     0.01900
C467        C  0.41637187  0.91898136  0.99010188     0.30000
C468        C  0.39110897  0.92478169  0.01860411    -0.19500
C469        C  0.40334200  0.94535169  0.04875944    -0.28900
C470        C  0.44151624  0.96092703  0.04949403     0.44100
C471        C  0.48411551  0.91913686  0.96580803     0.05200
O472        O  0.40425483  0.89661000  0.96222812    -0.57400
H473        H  0.36223076  0.91176882  0.01756518     0.18200
O474        O  0.45433934  0.98192031  0.07793066    -0.64100
H475        H  0.49692511  0.96519161  0.02253334     0.16600
C476        C  0.48656900  0.93413922  0.93104125     0.28900
C477        C  0.51223861  0.91651759  0.90674596    -0.25000
C478        C  0.53480781  0.88358764  0.91677553    -0.24300
C479        C  0.53284639  0.86947709  0.95184388     0.40300
C480        C  0.50774349  0.88725448  0.97596906    -0.26700
O481        O  0.46321114  0.96500078  0.92037225    -0.58600
H482        H  0.51354323  0.92765678  0.87985277     0.16000
O483        O  0.55494291  0.83777561  0.96268786    -0.60000
H484        H  0.50582299  0.87535003  0.00258149     0.14400
H485        H  0.44911781  0.00972411  0.07150830     0.46300
H486        H  0.47969354  0.98855630  0.92324263     0.41700
H487        H  0.58078096  0.84867743  0.96945863     0.45100
H488        H  0.38883949  0.91471713  0.94677920     0.36600
C489        C  0.39055280  0.02015882  0.22742599    -0.27700
C490        C  0.41643960  0.05025645  0.21834029     0.01900
C491        C  0.42928813  0.05402283  0.18313604     0.30000
C492        C  0.41498208  0.02857486  0.15720537    -0.19500
C493        C  0.38750972  0.99976398  0.16607375    -0.28900
C494        C  0.37608302  0.99502102  0.20158668     0.44100
C495        C  0.42649401  0.07958400  0.24529921     0.05200
O496        O  0.45542628  0.08269170  0.17390367    -0.57400
H497        H  0.42390327  0.03253285  0.12998064     0.18200
O498        O  0.34945953  0.96688563  0.21099779    -0.64100
H499        H  0.38036496  0.01714352  0.25441954     0.16600
C500        C  0.40713458  0.11609761  0.24533569     0.28900
C501        C  0.41339538  0.14213227  0.27305876    -0.25000
C502        C  0.43911105  0.13241568  0.30100071    -0.24300
C503        C  0.45919020  0.09614713  0.30052274     0.40300
C504        C  0.45255075  0.06986984  0.27290025    -0.26700
O505        O  0.38026795  0.12555182  0.21943821    -0.58600
H506        H  0.39709290  0.16951553  0.27324290     0.16000
O507        O  0.48524453  0.08600603  0.32687106    -0.60000
H508        H  0.46740811  0.04168177  0.27317150     0.14400
H509        H  0.36539886  0.94298623  0.21599326     0.46300
H510        H  0.39422654  0.14340973  0.20303171     0.41700
H511        H  0.50974018  0.10014629  0.32106098     0.45100
H512        H  0.43937608  0.10375712  0.16268421     0.36600
C513        C  0.37531572  0.81501753  0.18677963    -0.27700
C514        C  0.41067164  0.79976193  0.17374389     0.01900
C515        C  0.43084905  0.82081089  0.14735969     0.30000
C516        C  0.41497176  0.85594800  0.13373080    -0.19500
C517        C  0.37895306  0.87075879  0.14611704    -0.28900
C518        C  0.35947110  0.85013950  0.17337467     0.44100
C519        C  0.42499969  0.76114688  0.18715025     0.05200
O520        O  0.46599809  0.80721656  0.13463072    -0.57400
H521        H  0.43052363  0.87116193  0.11285908     0.18200
O522        O  0.32575879  0.86482039  0.18813948    -0.64100
H523        H  0.35950459  0.79927472  0.20719162     0.16600
C524        C  0.43021958  0.75417322  0.22364304     0.28900
C525        C  0.43884309  0.71633349  0.23621396    -0.25000
C526        C  0.44214536  0.68475312  0.21286650    -0.24300
C527        C  0.43836518  0.69203692  0.17615891     0.40300
C528        C  0.43015743  0.73003083  0.16360195    -0.26700
O529        O  0.42587709  0.78403996  0.24733032    -0.58600
H530        H  0.44163622  0.71152550  0.26447577     0.16000
O531        O  0.44273476  0.66232250  0.15228939    -0.60000
H532        H  0.42624964  0.73488486  0.13544410     0.14400
H533        H  0.30461534  0.84645959  0.18126761     0.46300
H534        H  0.45293310  0.79300565  0.25240771     0.41700
H535        H  0.41566362  0.65420129  0.14625802     0.45100
H536        H  0.48617245  0.81765149  0.15092938     0.36600
C537        C  0.81089571  0.40568433  0.86604533    -0.27700
C538        C  0.80287836  0.40371367  0.82961367     0.01900
C539        C  0.83180954  0.38826198  0.80696573     0.30000
C540        C  0.86775066  0.37496815  0.82088897    -0.19500
C541        C  0.87542661  0.37692189  0.85723717    -0.28900
C542        C  0.84666723  0.39186808  0.88004178     0.44100
C543        C  0.76343740  0.41559912  0.81607102     0.05200
O544        O  0.82486949  0.38499868  0.77137144    -0.57400
H545        H  0.88932669  0.36227074  0.80335198     0.18200
O546        O  0.85255251  0.39013849  0.91605051    -0.64100
H547        H  0.78904632  0.41741629  0.88386635     0.16600
C548        C  0.72922472  0.40132144  0.83235296     0.28900
C549        C  0.69230619  0.41237239  0.81939059    -0.25000
C550        C  0.68831964  0.43761035  0.78999911    -0.24300
C551        C  0.72252201  0.45196600  0.77359229     0.40300
C552        C  0.75966928  0.44102905  0.78673037    -0.26700
O553        O  0.73156605  0.37479836  0.85982149    -0.58600
H554        H  0.66662963  0.40029217  0.83217033     0.16000
O555        O  0.72015166  0.47623017  0.74453111    -0.60000
H556        H  0.78562129  0.45258930  0.77402387     0.14400
H557        H  0.84166313  0.41495347  0.92607562     0.46300
H558        H  0.72240281  0.38915616  0.88098477     0.41700
H559        H  0.71797592  0.50307062  0.75416598     0.45100
H560        H  0.81389760  0.35841906  0.76831320     0.36600
C561        C  0.63864572  0.30340251  0.68512197    -0.27700
C562        C  0.61105310  0.27323452  0.68719857     0.01900
C563        C  0.57439174  0.28056782  0.70306302     0.30000
C564        C  0.56584543  0.31786790  0.71654591    -0.19500
C565        C  0.59328314  0.34820287  0.71355393    -0.28900
C566        C  0.62998730  0.34058102  0.69793581     0.44100
C567        C  0.62144164  0.23469021  0.67212383     0.05200
O568        O  0.54659001  0.25179684  0.70490513    -0.57400
H569        H  0.53754102  0.32335642  0.72856865     0.18200
O570        O  0.65796558  0.36919360  0.69556638    -0.64100
H571        H  0.66721058  0.29802981  0.67352445     0.16600
C572        C  0.63456545  0.23238877  0.63692570     0.28900
C573        C  0.65057530  0.19749874  0.62441926    -0.25000
C574        C  0.65259906  0.16414324  0.64619921    -0.24300
C575        C  0.63734705  0.16547206  0.68064072     0.40300
C576        C  0.62216402  0.20083624  0.69360376    -0.26700
O577        O  0.63290669  0.26450275  0.61485205    -0.58600
H578        H  0.66172262  0.19646232  0.59763688     0.16000
O579        O  0.63968836  0.13324519  0.70252036    -0.60000
H580        H  0.61247097  0.20225511  0.72080978     0.14400
H581        H  0.67195041  0.36841127  0.71862301     0.46300
H582        H  0.60530170  0.26594058  0.60646330     0.41700
H583        H  0.61555384  0.11813377  0.69762930     0.45100
H584        H  0.53253185  0.25316000  0.68189115     0.36600
C585        C  0.61535871  0.70553868  0.82300993    -0.27700
C586        C  0.58449889  0.68178323  0.83445029     0.01900
C587        C  0.55644060  0.69737092  0.85761461     0.30000
C588        C  0.55831775  0.73676577  0.86764655    -0.19500
C589        C  0.58823696  0.76160367  0.85491668    -0.28900
C590        C  0.61750503  0.74487304  0.83305900     0.44100
C591        C  0.58087573  0.64142168  0.82064227     0.05200
O592        O  0.52635683  0.67456614  0.86991152    -0.57400
H593        H  0.53545406  0.74724722  0.88476427     0.18200
O594        O  0.64840187  0.76693038  0.82121381    -0.64100
H595        H  0.63767021  0.69365962  0.80571283     0.16600
C596        C  0.57581594  0.63519334  0.78418862     0.28900
C597        C  0.57322245  0.59703940  0.77120359    -0.25000
C598        C  0.57568181  0.56440876  0.79409017    -0.24300
C599        C  0.58032128  0.57069829  0.83071311     0.40300
C600        C  0.58267614  0.60899151  0.84372272    -0.26700
O601        O  0.57217809  0.66635447  0.76117521    -0.58600
H602        H  0.56932131  0.59301001  0.74302777     0.16000
O603        O  0.58361939  0.53972436  0.85393974    -0.60000
H604        H  0.58672582  0.61338317  0.87183206     0.14400
H605        H  0.64351522  0.77120669  0.79561732     0.46300
H606        H  0.59831378  0.66900421  0.74999675     0.41700
H607        H  0.61212148  0.53365242  0.85522132     0.45100
H608        H  0.50499917  0.67774912  0.85219754     0.36600
C609        C  0.32621933  0.42553624  0.68419348    -0.27700
C610        C  0.34997833  0.45747047  0.67550243     0.01900
C611        C  0.33440510  0.48811994  0.65466171     0.30000
C612        C  0.29553340  0.48674730  0.64285403    -0.19500
C613        C  0.27111562  0.45480094  0.65142619    -0.28900
C614        C  0.28721828  0.42401155  0.67247241     0.44100
C615        C  0.39065937  0.45930460  0.68912081     0.05200
O616        O  0.35668483  0.52024297  0.64645798    -0.57400
H617        H  0.28495669  0.51183879  0.62812189     0.18200
O618        O  0.26455653  0.39288988  0.68281880    -0.64100
H619        H  0.33790229  0.40170983  0.70030953     0.16600
C620        C  0.39827785  0.45840180  0.72567677     0.28900
C621        C  0.43691194  0.46055554  0.73807558    -0.25000
C622        C  0.46856193  0.46341470  0.71444456    -0.24300
C623        C  0.46076895  0.46467251  0.67776867     0.40300
C624        C  0.42204204  0.46273545  0.66541958    -0.26700
O625        O  0.36801701  0.45683989  0.74947534    -0.58600
H626        H  0.44206042  0.45983079  0.76636568     0.16000
O627        O  0.49067315  0.46712950  0.65370201    -0.60000
H628        H  0.41648743  0.46338535  0.63718449     0.14400
H629        H  0.27423277  0.37025211  0.66898706     0.46300
H630        H  0.36726462  0.42919464  0.75776763     0.41700
H631        H  0.49802441  0.43960197  0.64854307     0.45100
H632        H  0.35494871  0.53738498  0.66741895     0.36600
C633        C  0.86956777  0.72022460  0.06247876    -0.27700
C634        C  0.90514671  0.73418538  0.07609698     0.01900
C635        C  0.92498317  0.71188293  0.10227306     0.30000
C636        C  0.90846883  0.67719822  0.11532776    -0.19500
C637        C  0.87252226  0.66351659  0.10207833    -0.28900
C638        C  0.85370547  0.68494611  0.07460918     0.44100
C639        C  0.92016969  0.77278425  0.06381656     0.11200
O640        O  0.96039613  0.72388024  0.11552143    -0.57400
H641        H  0.92354297  0.66155788  0.13647775     0.18200
O642        O  0.81979708  0.67180496  0.05923710    -0.64100
H643        H  0.85360673  0.73701608  0.04258896     0.16600
C644        C  0.92300157  0.78200875  0.02750299     0.28900
C645        C  0.93376770  0.81979896  0.01661457    -0.25000
C646        C  0.94138895  0.84911043  0.04147332    -0.24300
C647        C  0.94029059  0.83934919  0.07779782     0.40300
C648        C  0.92971538  0.80153015  0.08866399    -0.26700
O649        O  0.91592048  0.75403854  0.00249560    -0.58600
H650        H  0.93482453  0.82648433  0.98857090     0.16000
O651        O  0.95004013  0.86637323  0.10290676    -0.60000
H652        H  0.92781826  0.79504164  0.11670206     0.14400
H653        H  0.82842257  0.65218202  0.04167401     0.46300
H654        H  0.89074786  0.76187107  0.99104529     0.41700
H655        H  0.92466288  0.87602163  0.11236562     0.45100
H656        H  0.98027315  0.71403231  0.09862985     0.36600
C657        C  0.79656734  0.94822925  0.92251247    -0.27700
C658        C  0.76753428  0.93353752  0.94512337     0.01900
C659        C  0.77490388  0.93211065  0.98181661     0.30000
C660        C  0.81198167  0.94252770  0.99504805    -0.19500
C661        C  0.84195904  0.95457271  0.97203225    -0.28900
C662        C  0.83331808  0.95904784  0.93569995     0.44100
C663        C  0.73195706  0.91546864  0.92957873     0.05200
O664        O  0.74729260  0.91738811  0.00453775    -0.57400
H665        H  0.81796478  0.93895469  0.02305878     0.18200
O666        O  0.86107425  0.97272713  0.91259516    -0.64100
H667        H  0.79112022  0.95005957  0.89428892     0.16600
C668        C  0.69382075  0.92926521  0.93691434     0.28900
C669        C  0.66108419  0.91039805  0.92239623    -0.25000
C670        C  0.66572670  0.87785337  0.90017461    -0.24300
C671        C  0.70408728  0.86496080  0.89204080     0.40300
C672        C  0.73663163  0.88353951  0.90687040    -0.26700
O673        O  0.68823809  0.96122550  0.95804308    -0.58600
H674        H  0.63197933  0.92105434  0.92887956     0.16000
O675        O  0.71027027  0.83463656  0.86915560    -0.60000
H676        H  0.76581862  0.87284470  0.90065310     0.14400
H677        H  0.85884051  0.00168683  0.91359005     0.46300
H678        H  0.68951979  0.98419562  0.94184330     0.41700
H679        H  0.71486198  0.84723872  0.84583932     0.45100
H680        H  0.73593037  0.94056370  0.01646499     0.36600
C681        C  0.21066882  0.92833449  0.06507732    -0.27700
C682        C  0.18762139  0.96066871  0.07457829     0.01900
C683        C  0.20456655  0.99036691  0.09497366     0.30000
C684        C  0.24381612  0.98721077  0.10601767    -0.19500
C685        C  0.26726560  0.95461451  0.09674696    -0.28900
C686        C  0.25001409  0.92527478  0.07559611     0.44100
C687        C  0.14602716  0.96306340  0.06280836     0.05200
O688        O  0.18328207  0.02319592  0.10350913    -0.57400
H689        H  0.25558798  0.01132252  0.12073684     0.18200
O690        O  0.27190532  0.89406224  0.06391428    -0.64100
H691        H  0.19811062  0.90522897  0.04929587     0.16600
C692        C  0.13606344  0.96053780  0.02675725     0.28900
C693        C  0.09657082  0.96081713  0.01629203    -0.25000
C694        C  0.06626547  0.96355438  0.04132736    -0.24300
C695        C  0.07637934  0.96672961  0.07744231     0.40300
C696        C  0.11595358  0.96655710  0.08786132    -0.26700
O697        O  0.16482023  0.95914285  0.00148038    -0.58600
H698        H  0.08971721  0.95897551  0.98836156     0.16000
O699        O  0.04794366  0.96952891  0.10287330    -0.60000
H700        H  0.12317822  0.96830999  0.11572788     0.14400
H701        H  0.26210880  0.87091368  0.07717396     0.46300
H702        H  0.16548325  0.93157652  0.99340694     0.41700
H703        H  0.04357183  0.94224959  0.11114923     0.45100
H704        H  0.18573834  0.04103215  0.08278302     0.36600
C705        C  0.93349792  0.21789686  0.94736543    -0.27700
C706        C  0.96486962  0.19338914  0.93802336     0.01900
C707        C  0.99484687  0.20855352  0.91655145     0.30000
C708        C  0.99278829  0.24737336  0.90411249    -0.19500
C709        C  0.96095615  0.27217838  0.91287040    -0.28900
C710        C  0.93159843  0.25685804  0.93549091     0.44100
C711        C  0.96553280  0.15190774  0.95035783     0.05200
O712        O  0.02658796  0.18571046  0.90777579    -0.57400
H713        H  0.01681302  0.25748641  0.88811608     0.18200
O714        O  0.90026569  0.27961126  0.94558521    -0.64100
H715        H  0.91002602  0.20666527  0.96373853     0.16600
C716        C  0.96310054  0.14235140  0.98657405     0.28900
C717        C  0.96157671  0.10304388  0.99751180    -0.25000
C718        C  0.96236969  0.07255620  0.97278027    -0.24300
C719        C  0.96547679  0.08221503  0.93649265     0.40300
C720        C  0.96710821  0.12156079  0.92561481    -0.26700
O721        O  0.96349981  0.17125723  0.01152376    -0.58600
H722        H  0.95983795  0.09646503  0.02554268     0.16000
O723        O  0.96637093  0.05357449  0.91132215    -0.60000
H724        H  0.96871468  0.12843879  0.89762832     0.14400
H725        H  0.90616024  0.28749054  0.97022456     0.46300
H726        H  0.93604846  0.17338671  0.01999084     0.41700
H727        H  0.93858042  0.04986778  0.90425346     0.45100
H728        H  0.04572225  0.18916190  0.92731033     0.36600
loop_ 
_geom_bond_atom_site_label_1 
_geom_bond_atom_site_label_2 
_geom_bond_distance 
_geom_bond_site_symmetry_2 
_ccdc_geom_bond_type 
O1            V9   1.907       .  S
O1           C11   1.266   1_655  A
O2            V9   1.912       .  S
O2           C12   1.267   1_554  A
O3            V9   1.897       .  S
O3           C13   1.264       .  A
O4            V9   1.901   1_545  S
O4           C14   1.266   1_554  A
O5           V10   1.902   1_545  S
O5           C14   1.265       .  A
O6           V10   1.906       .  S
O6           C13   1.266   1_556  A
O7           V10   1.895       .  S
O7           C12   1.264       .  A
O8           V10   1.898   1_455  S
O8           C11   1.265   1_556  A
V9           V10   2.085   1_554  T
C11         C694   1.487       .  S
C12         C661   1.484       .  S
C13         C646   1.483       .  S
C14         C718   1.486       .  S
O15          V23   1.908       .  S
O15          C25   1.267       .  A
O16          V23   1.908       .  S
O16          C26   1.265       .  A
O17          V23   1.887       .  S
O17          C27   1.263       .  A
O18          V23   1.890       .  S
O18          C28   1.263       .  A
O19          V24   1.905       .  S
O19          C28   1.266       .  A
O20          V24   1.907       .  S
O20          C27   1.266       .  A
O21          V24   1.889       .  S
O21          C26   1.262       .  A
O22          V24   1.895       .  S
O22          C25   1.264       .  A
V23          V24   2.085       .  T
C25         C598   1.484       .  S
C26         C565   1.472       .  S
C27         C550   1.483       .  S
C28         C622   1.480       .  S
C29          C30   1.528       .  S
C29          C35   1.541       .  S
C29          C33   1.540       .  S
C29         C685   1.534       .  S
C30          H37   1.087       .  S
C30          C31   1.363       .  D
C31          C32   1.547       .  S
C31         C469   1.490       .  S
C32          C36   1.540       .  S
C32          C34   1.544       .  S
C32          H38   1.109       .  S
C33          H39   1.084       .  S
C33          C34   1.369       .  D
C34         C517   1.493       .  S
C35          H40   1.082   1_565  S
C35          C36   1.366       .  D
C36         C493   1.479       .  S
C41          C42   1.537       .  S
C41          C47   1.536       .  S
C41          C45   1.545       .  S
C41         C397   1.533       .  S
C42          H49   1.086       .  S
C42          C43   1.365       .  D
C43          C44   1.538       .  S
C43         C502   1.484       .  S
C44          C48   1.533       .  S
C44          C46   1.532       .  S
C44          H50   1.109       .  S
C45          H51   1.080       .  S
C45          C46   1.366       .  D
C46         C454   1.478       .  S
C47          H52   1.086       .  S
C47          C48   1.366       .  D
C48         C430   1.477       .  S
C53          C54   1.535       .  S
C53          C59   1.541       .  S
C53          C57   1.543       .  S
C53         C589   1.538       .  S
C54          H61   1.086       .  S
C54          C55   1.365       .  D
C55          C56   1.537       .  S
C55         C373   1.484       .  S
C56          C60   1.537       .  S
C56          C58   1.538       .  S
C56          H62   1.110       .  S
C57          H63   1.085       .  S
C57          C58   1.371       .  D
C58         C670   1.492       .  S
C59          H64   1.081       .  S
C59          C60   1.366       .  D
C60         C478   1.481       .  S
C65          C66   1.531       .  S
C65          C71   1.532       .  S
C65          C69   1.545       .  S
C65         C358   1.529       .  S
C66          H73   1.086       .  S
C66          C67   1.369       .  D
C67          C68   1.546       .  S
C67         C421   1.494       .  S
C68          C72   1.541       .  S
C68          C70   1.531       .  S
C68          H74   1.106       .  S
C69          H75   1.081       .  S
C69          C70   1.361       .  D
C70         C574   1.472       .  S
C71          H76   1.085       .  S
C71          C72   1.366       .  D
C72         C382   1.489       .  S
O77          V85   1.901       .  S
O77          C87   1.265       .  A
O78          V85   1.904       .  S
O78          C88   1.265       .  A
O79          V85   1.887       .  S
O79          C89   1.263       .  A
O80          V85   1.888       .  S
O80          C90   1.262       .  A
O81          V86   1.898       .  S
O81          C90   1.264       .  A
O82          V86   1.893       .  S
O82          C89   1.263       .  A
O83          V86   1.894       .  S
O83          C88   1.265       .  A
O84          V86   1.893       .  S
O84          C87   1.263       .  A
V85          V86   2.086       .  T
C87         C334   1.483   1_545  S
C88         C301   1.482       .  S
C89         C445   1.471       .  S
C90         C349   1.477   1_455  S
O91          V99   1.907       .  S
O91         C101   1.266       .  A
O92          V99   1.905       .  S
O92         C102   1.267       .  A
O93          V99   1.892       .  S
O93         C103   1.263       .  A
O94          V99   1.896       .  S
O94         C104   1.264       .  A
O95         V100   1.901       .  S
O95         C104   1.266       .  A
O96         V100   1.904       .  S
O96         C103   1.266       .  A
O97         V100   1.895       .  S
O97         C102   1.263       .  A
O98         V100   1.895       .  S
O98         C101   1.264       .  A
V99         V100   2.085       .  T
C101        C406   1.485       .  S
C102        C526   1.483       .  S
C103        C253   1.482       .  S
C104        C277   1.485       .  S
C105        C106   1.535       .  S
C105        C111   1.541       .  S
C105        C109   1.539       .  S
C105        C613   1.532       .  S
C106        H113   1.085       .  S
C106        C107   1.368       .  D
C107        C108   1.546       .  S
C107        C205   1.495       .  S
C108        C112   1.537       .  S
C108        C110   1.535       .  S
C108        H114   1.110       .  S
C109        H115   1.086       .  S
C109        C110   1.363       .  D
C110        C310   1.472       .  S
C111        H116   1.081       .  S
C111        C112   1.364       .  D
C112        C238   1.480       .  S
C117        C118   1.535       .  S
C117        C123   1.545       .  S
C117        C121   1.539       .  S
C117        C709   1.538       .  S
C118        H125   1.084       .  S
C118        C119   1.373       .  D
C119        C120   1.550       .  S
C119        C181   1.510       .  S
C120        C124   1.539       .  S
C120        C122   1.536       .  S
C120        H126   1.104       .  S
C121        H127   1.086       .  S
C121        C122   1.361       .  D
C122        C541   1.474       .  S
C123        H128   1.082   1_655  S
C123        C124   1.367       .  D
C124        C214   1.488   1_655  S
C129        C130   1.536       .  S
C129        C135   1.529       .  S
C129        C133   1.549       .  S
C129        C325   1.529       .  S
C130        H137   1.087       .  S
C130        C131   1.363       .  D
C131        C132   1.535       .  S
C131        C229   1.474       .  S
C132        C136   1.538       .  S
C132        C134   1.538       .  S
C132        H138   1.109       .  S
C133        H139   1.081       .  S
C133        C134   1.371       .  D
C134        C262   1.487       .  S
C135        H140   1.087       .  S
C135        C136   1.363       .  D
C136        C166   1.483       .  S
C141        C142   1.534       .  S
C141        C147   1.536       .  S
C141        C145   1.548       .  S
C141        C286   1.535       .  S
C142        H149   1.086       .  S
C142        C143   1.363       .  D
C143        C144   1.537       .  S
C143        C157   1.479       .  S
C144        C148   1.540       .  S
C144        C146   1.537       .  S
C144        H150   1.110       .  S
C145        H151   1.078       .  S
C145        C146   1.368       .  D
C146        C637   1.491       .  S
C147        H152   1.086       .  S
C147        C148   1.368       .  D
C148        C190   1.487       .  S
C153        C154   1.401       .  A
C153        C158   1.395       .  A
C153        H163   1.084       .  S
C154        C159   1.476       .  S
C154        C155   1.408       .  A
C155        C156   1.403       .  A
C155        O160   1.371       .  S
C156        C157   1.403       .  A
C156        H161   1.084       .  S
C157        C158   1.411       .  A
C158        O162   1.372       .  S
C159        C164   1.405       .  A
C159        C168   1.403       .  A
O160        H176   0.992   1_655  S
O162        H173   0.991       .  S
C164        C165   1.395   1_655  A
C164        O169   1.372       .  S
C165        C166   1.405       .  A
C165        H170   1.084       .  S
C166        C167   1.409       .  A
C167        C168   1.403   1_455  A
C167        O171   1.371       .  S
C168        H172   1.083       .  S
O169        H174   0.992       .  S
O171        H175   0.992   1_455  S
C177        C178   1.400   1_556  A
C177        C182   1.407       .  A
C177        H187   1.084       .  S
C178        C183   1.483       .  S
C178        C179   1.402       .  A
C179        C180   1.400   1_554  A
C179        O184   1.371       .  S
C180        C181   1.414       .  A
C180        H185   1.082       .  S
C181        C182   1.419       .  A
C182        O186   1.374       .  S
C183        C188   1.406       .  A
C183        C192   1.405       .  A
O184        H200   0.992   1_655  S
O186        H197   0.990       .  S
C188        C189   1.401       .  A
C188        O193   1.372       .  S
C189        C190   1.405       .  A
C189        H194   1.083       .  S
C190        C191   1.411       .  A
C191        C192   1.402       .  A
C191        O195   1.372       .  S
C192        H196   1.084       .  S
O193        H198   0.992   1_554  S
O195        H199   0.992       .  S
C201        C202   1.403       .  A
C201        C206   1.402       .  A
C201        H211   1.083       .  S
C202        C207   1.487       .  S
C202        C203   1.409       .  A
C203        C204   1.400       .  A
C203        O208   1.372       .  S
C204        C205   1.405       .  A
C204        H209   1.081       .  S
C205        C206   1.415       .  A
C206        O210   1.371       .  S
C207        C212   1.410       .  A
C207        C216   1.403       .  A
O208        H224   0.992       .  S
O210        H221   0.992       .  S
C212        C213   1.403       .  A
C212        O217   1.371       .  S
C213        C214   1.404       .  A
C213        H218   1.084       .  S
C214        C215   1.410   1_455  A
C215        C216   1.402   1_655  A
C215        O219   1.370       .  S
C216        H220   1.084       .  S
O217        H222   0.992       .  S
O219        H223   0.991       .  S
C225        C226   1.403       .  A
C225        C230   1.395       .  A
C225        H235   1.084       .  S
C226        C231   1.481       .  S
C226        C227   1.410       .  A
C227        C228   1.404       .  A
C227        O232   1.371       .  S
C228        C229   1.401       .  A
C228        H233   1.083       .  S
C229        C230   1.406       .  A
C230        O234   1.372       .  S
C231        C236   1.407       .  A
C231        C240   1.406       .  A
O232        H248   0.992       .  S
O234        H245   0.992       .  S
C236        C237   1.396       .  A
C236        O241   1.373       .  S
C237        C238   1.403       .  A
C237        H242   1.084       .  S
C238        C239   1.406       .  A
C239        C240   1.405       .  A
C239        O243   1.371       .  S
C240        H244   1.083       .  S
O241        H246   0.992       .  S
O243        H247   0.992       .  S
C249        C250   1.400       .  A
C249        C254   1.397       .  A
C249        H259   1.084       .  S
C250        C255   1.476       .  S
C250        C251   1.406       .  A
C251        C252   1.400       .  A
C251        O256   1.371       .  S
C252        C253   1.407       .  A
C252        H257   1.083       .  S
C253        C254   1.413       .  A
C254        O258   1.372       .  S
C255        C260   1.404       .  A
C255        C264   1.402       .  A
O256        H272   0.991       .  S
O258        H269   0.991       .  S
C260        C261   1.398       .  A
C260        O265   1.372       .  S
C261        C262   1.406       .  A
C261        H266   1.083       .  S
C262        C263   1.412       .  A
C263        C264   1.400       .  A
C263        O267   1.371       .  S
C264        H268   1.084       .  S
O265        H270   0.992       .  S
O267        H271   0.991       .  S
C273        C274   1.400       .  A
C273        C278   1.399       .  A
C273        H283   1.084       .  S
C274        C279   1.475       .  S
C274        C275   1.404       .  A
C275        C276   1.401       .  A
C275        O280   1.372       .  S
C276        C277   1.408       .  A
C276        H281   1.083       .  S
C277        C278   1.414       .  A
C278        O282   1.372       .  S
C279        C284   1.401       .  A
C279        C288   1.399       .  A
O280        H296   0.990       .  S
O282        H293   0.992       .  S
C284        C285   1.399       .  A
C284        O289   1.372       .  S
C285        C286   1.414       .  A
C285        H290   1.076       .  S
C286        C287   1.417       .  A
C287        C288   1.402       .  A
C287        O291   1.373       .  S
C288        H292   1.084       .  S
O289        H294   0.991       .  S
O291        H295   0.993       .  S
C297        C298   1.406       .  A
C297        C302   1.404       .  A
C297        H307   1.083       .  S
C298        C303   1.489       .  S
C298        C299   1.411       .  A
C299        C300   1.395       .  A
C299        O304   1.372       .  S
C300        C301   1.404       .  A
C300        H305   1.084       .  S
C301        C302   1.411       .  A
C302        O306   1.371       .  S
C303        C308   1.413       .  A
C303        C312   1.406       .  A
O304        H320   0.992       .  S
O306        H317   0.992       .  S
C308        C309   1.405       .  A
C308        O313   1.372       .  S
C309        C310   1.401       .  A
C309        H314   1.084       .  S
C310        C311   1.402       .  A
C311        C312   1.395       .  A
C311        O315   1.371       .  S
C312        H316   1.083       .  S
O313        H318   0.992       .  S
O315        H319   0.992       .  S
C321        C322   1.397       .  A
C321        C326   1.397       .  A
C321        H331   1.084       .  S
C322        C327   1.473       .  S
C322        C323   1.403       .  A
C323        C324   1.400       .  A
C323        O328   1.372       .  S
C324        C325   1.411       .  A
C324        H329   1.077       .  S
C325        C326   1.418       .  A
C326        O330   1.372       .  S
C327        C332   1.404       .  A
C327        C336   1.398       .  A
O328        H344   0.992       .  S
O330        H341   0.992       .  S
C332        C333   1.401       .  A
C332        O337   1.372       .  S
C333        C334   1.408       .  A
C333        H338   1.083       .  S
C334        C335   1.414       .  A
C335        C336   1.396       .  A
C335        O339   1.372       .  S
C336        H340   1.084       .  S
O337        H342   0.991       .  S
O339        H343   0.991       .  S
C345        C346   1.398       .  A
C345        C350   1.394       .  A
C345        H355   1.084       .  S
C346        C351   1.469       .  S
C346        C347   1.404       .  A
C347        C348   1.399       .  A
C347        O352   1.372       .  S
C348        C349   1.407       .  A
C348        H353   1.083       .  S
C349        C350   1.412       .  A
C350        O354   1.372       .  S
C351        C356   1.401       .  A
C351        C360   1.397       .  A
O352        H368   0.992       .  S
O354        H365   0.992       .  S
C356        C357   1.394       .  A
C356        O361   1.372       .  S
C357        C358   1.411       .  A
C357        H362   1.075       .  S
C358        C359   1.419       .  A
C359        C360   1.400       .  A
C359        O363   1.373       .  S
C360        H364   1.084       .  S
O361        H366   0.992       .  S
O363        H367   0.992       .  S
C369        C370   1.398       .  A
C369        C374   1.395       .  A
C369        H379   1.084       .  S
C370        C375   1.475       .  S
C370        C371   1.407       .  A
C371        C372   1.403       .  A
C371        O376   1.371       .  S
C372        C373   1.405       .  A
C372        H377   1.083       .  S
C373        C374   1.414       .  A
C374        O378   1.371       .  S
C375        C380   1.404       .  A
C375        C384   1.401       .  A
O376        H392   0.992   1_565  S
O378        H389   0.993       .  S
C380        C381   1.395   1_565  A
C380        O385   1.372       .  S
C381        C382   1.407       .  A
C381        H386   1.083       .  S
C382        C383   1.413       .  A
C383        C384   1.402   1_545  A
C383        O387   1.371       .  S
C384        H388   1.084       .  S
O385        H390   0.992       .  S
O387        H391   0.992       .  S
C393        C394   1.400       .  A
C393        C398   1.399       .  A
C393        H403   1.084       .  S
C394        C399   1.481       .  S
C394        C395   1.404       .  A
C395        C396   1.401       .  A
C395        O400   1.373       .  S
C396        C397   1.413       .  A
C396        H401   1.075       .  S
C397        C398   1.416       .  A
C398        O402   1.372       .  S
C399        C404   1.408       .  A
C399        C408   1.401       .  A
O400        H416   0.992       .  S
O402        H413   0.992       .  S
C404        C405   1.403       .  A
C404        O409   1.371       .  S
C405        C406   1.407       .  A
C405        H410   1.083       .  S
C406        C407   1.412       .  A
C407        C408   1.398       .  A
C407        O411   1.372       .  S
C408        H412   1.084       .  S
O409        H414   0.992       .  S
O411        H415   0.991       .  S
C417        C418   1.400       .  A
C417        C422   1.399       .  A
C417        H427   1.084       .  S
C418        C423   1.478       .  S
C418        C419   1.404       .  A
C419        C420   1.399       .  A
C419        O424   1.372       .  S
C420        C421   1.410       .  A
C420        H425   1.083       .  S
C421        C422   1.414       .  A
C422        O426   1.370       .  S
C423        C428   1.407       .  A
C423        C432   1.404       .  A
O424        H440   0.991       .  S
O426        H437   0.992       .  S
C428        C429   1.399       .  A
C428        O433   1.372       .  S
C429        C430   1.404       .  A
C429        H434   1.084       .  S
C430        C431   1.406       .  A
C431        C432   1.398       .  A
C431        O435   1.371       .  S
C432        H436   1.084       .  S
O433        H438   0.992       .  S
O435        H439   0.991       .  S
C441        C442   1.402       .  A
C441        C446   1.396       .  A
C441        H451   1.084       .  S
C442        C447   1.475       .  S
C442        C443   1.408       .  A
C443        C444   1.393       .  A
C443        O448   1.372       .  S
C444        C445   1.403       .  A
C444        H449   1.084       .  S
C445        C446   1.411       .  A
C446        O450   1.372       .  S
C447        C452   1.408       .  A
C447        C456   1.402       .  A
O448        H464   0.992       .  S
O450        H461   0.993       .  S
C452        C453   1.394       .  A
C452        O457   1.372       .  S
C453        C454   1.404       .  A
C453        H458   1.083       .  S
C454        C455   1.409       .  A
C455        C456   1.396       .  A
C455        O459   1.371       .  S
C456        H460   1.084       .  S
O457        H462   0.992       .  S
O459        H463   0.991       .  S
C465        C466   1.404   1_554  A
C465        C470   1.404       .  A
C465        H475   1.083       .  S
C466        C471   1.476       .  S
C466        C467   1.403       .  A
C467        C468   1.397   1_556  A
C467        O472   1.372       .  S
C468        C469   1.409       .  A
C468        H473   1.083       .  S
C469        C470   1.409       .  A
C470        O474   1.370       .  S
C471        C476   1.409       .  A
C471        C480   1.398       .  A
O472        H488   0.992       .  S
O474        H485   0.992   1_565  S
C476        C477   1.407       .  A
C476        O481   1.371       .  S
C477        C478   1.405       .  A
C477        H482   1.083       .  S
C478        C479   1.409       .  A
C479        C480   1.393       .  A
C479        O483   1.371       .  S
C480        H484   1.084   1_556  S
O481        H486   0.991       .  S
O483        H487   0.992       .  S
C489        C490   1.400       .  A
C489        C494   1.398   1_545  A
C489        H499   1.084       .  S
C490        C495   1.477       .  S
C490        C491   1.408       .  A
C491        C492   1.405       .  A
C491        O496   1.372       .  S
C492        C493   1.402   1_545  A
C492        H497   1.082       .  S
C493        C494   1.408       .  A
C494        O498   1.372       .  S
C495        C500   1.405       .  A
C495        C504   1.403       .  A
O496        H512   0.991       .  S
O498        H509   0.992       .  S
C500        C501   1.398       .  A
C500        O505   1.372       .  S
C501        C502   1.405       .  A
C501        H506   1.083       .  S
C502        C503   1.410       .  A
C503        C504   1.402       .  A
C503        O507   1.371       .  S
C504        H508   1.083       .  S
O505        H510   0.991       .  S
O507        H511   0.992       .  S
C513        C514   1.402       .  A
C513        C518   1.400       .  A
C513        H523   1.084       .  S
C514        C519   1.485       .  S
C514        C515   1.408       .  A
C515        C516   1.404       .  A
C515        O520   1.371       .  S
C516        C517   1.407       .  A
C516        H521   1.083       .  S
C517        C518   1.413       .  A
C518        O522   1.372       .  S
C519        C524   1.408       .  A
C519        C528   1.403       .  A
O520        H536   0.992       .  S
O522        H533   0.994       .  S
C524        C525   1.400       .  A
C524        O529   1.371       .  S
C525        C526   1.404       .  A
C525        H530   1.083       .  S
C526        C527   1.413       .  A
C527        C528   1.402       .  A
C527        O531   1.372       .  S
C528        H532   1.084       .  S
O529        H534   0.992       .  S
O531        H535   0.991       .  S
C537        C538   1.406       .  A
C537        C542   1.403       .  A
C537        H547   1.083       .  S
C538        C543   1.488       .  S
C538        C539   1.411       .  A
C539        C540   1.401       .  A
C539        O544   1.372       .  S
C540        C541   1.401       .  A
C540        H545   1.083       .  S
C541        C542   1.404       .  A
C542        O546   1.376       .  S
C543        C548   1.408       .  A
C543        C552   1.407       .  A
O544        H560   0.992       .  S
O546        H557   1.001       .  S
C548        C549   1.395       .  A
C548        O553   1.373       .  S
C549        C550   1.405       .  A
C549        H554   1.083       .  S
C550        C551   1.411       .  A
C551        C552   1.404       .  A
C551        O555   1.371       .  S
C552        H556   1.083       .  S
O553        H558   0.993       .  S
O555        H559   0.992       .  S
C561        C562   1.402       .  A
C561        C566   1.393       .  A
C561        H571   1.084       .  S
C562        C567   1.480       .  S
C562        C563   1.409       .  A
C563        C564   1.405       .  A
C563        O568   1.371       .  S
C564        C565   1.404       .  A
C564        H569   1.083       .  S
C565        C566   1.408       .  A
C566        O570   1.373       .  S
C567        C572   1.409       .  A
C567        C576   1.406       .  A
O568        H584   0.992       .  S
O570        H581   0.992       .  S
C572        C573   1.394       .  A
C572        O577   1.372       .  S
C573        C574   1.400       .  A
C573        H578   1.084       .  S
C574        C575   1.405       .  A
C575        C576   1.403       .  A
C575        O579   1.371       .  S
C576        H580   1.083       .  S
O577        H582   0.992       .  S
O579        H583   0.992       .  S
C585        C586   1.400       .  A
C585        C590   1.401       .  A
C585        H595   1.084       .  S
C586        C591   1.484       .  S
C586        C587   1.404       .  A
C587        C588   1.403       .  A
C587        O592   1.372       .  S
C588        C589   1.414       .  A
C588        H593   1.076       .  S
C589        C590   1.418       .  A
C590        O594   1.373       .  S
C591        C596   1.407       .  A
C591        C600   1.404       .  A
O592        H608   0.991       .  S
O594        H605   0.991       .  S
C596        C597   1.400       .  A
C596        O601   1.372       .  S
C597        C598   1.405       .  A
C597        H602   1.084       .  S
C598        C599   1.412       .  A
C599        C600   1.404       .  A
C599        O603   1.371       .  S
C600        H604   1.083       .  S
O601        H606   0.991       .  S
O603        H607   0.992       .  S
C609        C610   1.400       .  A
C609        C614   1.400       .  A
C609        H619   1.084       .  S
C610        C615   1.478       .  S
C610        C611   1.403       .  A
C611        C612   1.397       .  A
C611        O616   1.372       .  S
C612        C613   1.413       .  A
C612        H617   1.076       .  S
C613        C614   1.417       .  A
C614        O618   1.373       .  S
C615        C620   1.406       .  A
C615        C624   1.403       .  A
O616        H632   0.992       .  S
O618        H629   0.992       .  S
C620        C621   1.398       .  A
C620        O625   1.372       .  S
C621        C622   1.407       .  A
C621        H626   1.083       .  S
C622        C623   1.411       .  A
C623        C624   1.400       .  A
C623        O627   1.371       .  S
C624        H628   1.084       .  S
O625        H630   0.992       .  S
O627        H631   0.992       .  S
C633        C634   1.403       .  A
C633        C638   1.398       .  A
C633        H643   1.083       .  S
C634        C639   1.488       .  S
C634        C635   1.410       .  A
C635        C636   1.401       .  A
C635        O640   1.371       .  S
C636        C637   1.406       .  A
C636        H641   1.083       .  S
C637        C638   1.413       .  A
C638        O642   1.371       .  S
C639        C644   1.410       .  A
C639        C648   1.404       .  A
O640        H656   0.992       .  S
O642        H653   0.992       .  S
C644        C645   1.402       .  A
C644        O649   1.373       .  S
C645        C646   1.405       .  A
C645        H650   1.083   1_554  S
C646        C647   1.411       .  A
C647        C648   1.401       .  A
C647        O651   1.372       .  S
C648        H652   1.083       .  S
O649        H654   0.992   1_554  S
O651        H655   0.992       .  S
C657        C658   1.403       .  A
C657        C662   1.399       .  A
C657        H667   1.084       .  S
C658        C663   1.486       .  S
C658        C659   1.409       .  A
C659        C660   1.406       .  A
C659        O664   1.372   1_556  S
C660        C661   1.406       .  A
C660        H665   1.083   1_556  S
C661        C662   1.411       .  A
C662        O666   1.372       .  S
C663        C668   1.408       .  A
C663        C672   1.403       .  A
O664        H680   0.991       .  S
O666        H677   0.992   1_565  S
C668        C669   1.405       .  A
C668        O673   1.371       .  S
C669        C670   1.408       .  A
C669        H674   1.083       .  S
C670        C671   1.411       .  A
C671        C672   1.399       .  A
C671        O675   1.371       .  S
C672        H676   1.084       .  S
O673        H678   0.992       .  S
O675        H679   0.991       .  S
C681        C682   1.400       .  A
C681        C686   1.399       .  A
C681        H691   1.083       .  S
C682        C687   1.485       .  S
C682        C683   1.406       .  A
C683        C684   1.402       .  A
C683        O688   1.372   1_565  S
C684        C685   1.412       .  A
C684        H689   1.077   1_565  S
C685        C686   1.418       .  A
C686        O690   1.373       .  S
C687        C692   1.407       .  A
C687        C696   1.403       .  A
O688        H704   0.992       .  S
O690        H701   0.992       .  S
C692        C693   1.400       .  A
C692        O697   1.372       .  S
C693        C694   1.407       .  A
C693        H698   1.083   1_554  S
C694        C695   1.413       .  A
C695        C696   1.403       .  A
C695        O699   1.371       .  S
C696        H700   1.084       .  S
O697        H702   0.992   1_554  S
O699        H703   0.992       .  S
C705        C706   1.400       .  A
C705        C710   1.400       .  A
C705        H715   1.083       .  S
C706        C711   1.486       .  S
C706        C707   1.406       .  A
C707        C708   1.403       .  A
C707        O712   1.372   1_655  S
C708        C709   1.413       .  A
C708        H713   1.077   1_655  S
C709        C710   1.418       .  A
C710        O714   1.373       .  S
C711        C716   1.408       .  A
C711        C720   1.404       .  A
O712        H728   0.992       .  S
O714        H725   0.993       .  S
C716        C717   1.401       .  A
C716        O721   1.372   1_556  S
C717        C718   1.406       .  A
C717        H722   1.083   1_556  S
C718        C719   1.413       .  A
C719        C720   1.402       .  A
C719        O723   1.372       .  S
C720        H724   1.084       .  S
O721        H726   0.992       .  S
O723        H727   0.992       .  S
