geometry optimzed in LAMMPS
_audit_creation_date              2020-11-30 
_audit_creation_method            'lammps2cif' 
_symmetry_space_group_name_H-M    'P1' 
_symmetry_Int_Tables_number       1 
_symmetry_cell_setting            triclinic 
loop_ 
_symmetry_equiv_pos_as_xyz 
  x,y,z 
_cell_length_a                    24.52805195 
_cell_length_b                    24.533324760637495 
_cell_length_c                    40.36950814918684 
_cell_angle_alpha                 89.99379878769315 
_cell_angle_beta                  90.02036000639978 
_cell_angle_gamma                 74.2910252816337 
loop_ 
_atom_site_label 
_atom_site_type_symbol 
_atom_site_fract_x 
_atom_site_fract_y 
_atom_site_fract_z 
_atom_site_charge 
N1          N  0.94427575  0.94917656  0.00320246    -0.35700
N2          N  0.93049840  0.07097150  0.01277196    -0.56300
N3          N  0.05385346  0.05157298  0.00428932    -0.35700
N4          N  0.06649682  0.93100208  0.99075835    -0.56300
C5          C  0.88678982  0.96788158  0.00382593     0.27900
C6          C  0.95860493  0.89396139  0.99373750     0.27900
C7          C  0.03701241  0.10911429  0.00530999     0.27900
C8          C  0.10812293  0.03569193  0.99294659     0.27900
C9          C  0.87621615  0.06993237  0.01877795     0.36500
C10         C  0.93450005  0.12364883  0.02059574     0.36500
C11         C  0.06455549  0.87617549  0.99113012     0.36500
C12         C  0.12204983  0.93050547  0.99040327     0.36500
C13         C  0.86452861  0.92353138  0.99505138    -0.21000
C14         C  0.90951057  0.87722072  0.98879288    -0.21000
C15         C  0.08150052  0.12983936  0.99486795    -0.21000
C16         C  0.12601476  0.08385197  0.98709799    -0.21000
C17         C  0.84541895  0.12263646  0.03008506    -0.22100
C18         C  0.88214917  0.15640864  0.03132820    -0.22100
C19         C  0.11924034  0.84077516  0.99054925    -0.22100
C20         C  0.15545990  0.87501246  0.99004236    -0.22100
C21         C  0.85341145  0.02291099  0.01320209    -0.17400
C22         C  0.01444740  0.85727232  0.99070637    -0.17400
C23         C  0.14316970  0.97920736  0.98918037    -0.17400
C24         C  0.98352775  0.14380760  0.01634060    -0.17400
H25         H  0.82031553  0.92416282  0.99344663     0.15500
H26         H  0.90624482  0.83578084  0.98147167     0.15500
H27         H  0.08198042  0.17371192  0.99296310     0.15500
H28         H  0.16708113  0.08581274  0.97822983     0.15500
H29         H  0.80099434  0.13553759  0.03665882     0.13800
H30         H  0.87128895  0.20036907  0.03887373     0.13800
H31         H  0.13181093  0.79494713  0.99045746     0.13800
H32         H  0.20123941  0.86062219  0.98952604     0.13800
H33         H  0.97213366  0.97116200  0.01151397     0.27100
H34         H  0.03159238  0.02482266  0.01389563     0.27000
N35         N  0.94895520  0.94466315  0.50116028    -0.35700
N36         N  0.93194285  0.06689560  0.48995865    -0.56300
N37         N  0.05347540  0.05210581  0.50242050    -0.35700
N38         N  0.07144416  0.92896749  0.50995171    -0.56300
C39         C  0.89381437  0.95945184  0.49135987     0.27900
C40         C  0.96670571  0.88720025  0.50306068     0.27900
C41         C  0.03737986  0.10755950  0.49338501     0.27900
C42         C  0.11105254  0.03473499  0.50207125     0.27900
C43         C  0.87712566  0.06535061  0.48786088     0.36500
C44         C  0.93191027  0.12224606  0.48987801     0.36500
C45         C  0.06987823  0.87499290  0.51621862     0.36500
C46         C  0.12544388  0.93136345  0.51526107     0.36500
C47         C  0.87623315  0.91060546  0.48748655    -0.21000
C48         C  0.92178741  0.86540837  0.49489291    -0.21000
C49         C  0.08543681  0.12581574  0.48786393    -0.21000
C50         C  0.13157056  0.08015974  0.49317355    -0.21000
C51         C  0.84218439  0.12015468  0.48588522    -0.22100
C52         C  0.87670366  0.15601781  0.48722145    -0.22100
C53         C  0.12350381  0.84281636  0.52527705    -0.22100
C54         C  0.15852240  0.87828963  0.52460187    -0.22100
C55         C  0.85790566  0.01548239  0.48684522    -0.17400
C56         C  0.02170171  0.85341017  0.51241265    -0.17400
C57         C  0.14611250  0.97986064  0.51047469    -0.17400
C58         C  0.98086917  0.14291874  0.49060498    -0.17400
H59         H  0.83469284  0.90763180  0.48014520     0.15500
H60         H  0.92169301  0.82133505  0.49418269     0.15500
H61         H  0.08724741  0.16770819  0.48048683     0.15500
H62         H  0.17539833  0.08055977  0.49071525     0.15500
H63         H  0.79649662  0.13304768  0.48369872     0.13800
H64         H  0.86270518  0.20177922  0.48608146     0.13800
H65         H  0.13631296  0.79818202  0.53134959     0.13800
H66         H  0.20339137  0.86619029  0.53010382     0.13800
H67         H  0.97181020  0.97223785  0.50857687     0.27100
H68         H  0.02685921  0.02909395  0.51120139     0.27000
Zr69       Zr  0.91187832  0.45541112  0.00546740     2.17500
O70         O  0.83192883  0.41508817  0.99785498    -0.50400
O71         O  0.85030114  0.48090906  0.05380105    -0.73600
O72         O  0.93786285  0.35162707  0.01498704    -0.80400
O73         O  0.85450585  0.57718464  0.94189648    -0.82200
O74         O  0.02843191  0.32267113  0.03410906    -0.77800
O75         O  0.84735627  0.49086110  0.95921143    -0.89400
O76         O  0.88479888  0.53570563  0.08899731    -0.75400
O77         O  0.97306009  0.45519534  0.05130543    -0.84900
O78         O  0.90296051  0.55299711  0.01816159    -0.84600
O79         O  0.00466353  0.40563113  0.98573751    -0.71300
O80         O  0.94148233  0.49856538  0.95789525    -0.83500
Zr81       Zr  0.08943058  0.54412430  0.99684304     2.26400
Zr82       Zr  0.06582935  0.40620680  0.03198086     2.06300
Zr83       Zr  0.93445347  0.59534844  0.97078969     2.10000
Zr84       Zr  0.96604558  0.55254233  0.06290077     1.78800
O85         O  0.92769350  0.63751399  0.91579138    -0.92300
O86         O  0.99733181  0.51884163  0.11835878    -0.40100
O87         O  0.99717987  0.59517840  0.01605044    -0.76700
O88         O  0.05883371  0.50347097  0.04560867    -0.95400
O89         O  0.09620424  0.44753273  0.98380089    -0.88700
O90         O  0.02708477  0.54648861  0.95110862    -0.91500
C91         C  0.84900457  0.50911173  0.08066523     1.02200
C92         C  0.83284160  0.53515961  0.94071046     1.15100
C93         C  0.98133674  0.31298882  0.02543222     1.05900
O94         O  0.07122045  0.37686623  0.08976331    -0.93700
O95         O  0.15557173  0.41543795  0.05364491    -0.89400
O96         O  0.16615353  0.49972277  0.03491913    -0.82600
C97         C  0.18139321  0.45447485  0.05252108     1.12600
O98         O  0.98423897  0.39193953  0.90749352    -0.95700
Zr99       Zr  0.03298901  0.44975918  0.93876188     1.88900
O100        O  0.14767971  0.52372116  0.94684222    -0.72300
O101        O  0.14126086  0.32564018  0.01318052    -0.51600
O102        O  0.09537559  0.35487114  0.93057370    -0.96300
O103        O  0.00243344  0.48736454  0.88385794    -0.53500
O104        O  0.11696166  0.46262072  0.91423532    -0.72800
C105        C  0.15081190  0.49211975  0.92120292     0.99500
O106        O  0.16720541  0.58630198  0.00767025    -0.61700
O107        O  0.85251773  0.66892351  0.99013544    -0.56500
O108        O  0.06184437  0.64849070  0.99197109    -0.91300
O109        O  0.97087346  0.67892673  0.97378513    -0.91600
O110        O  0.90391955  0.64827194  0.06762990    -0.91900
O111        O  0.00739267  0.61383925  0.09621253    -0.90700
C112        C  0.01797533  0.68785641  0.98291095     1.18300
H113        H  0.86438016  0.57283410  0.02366280     0.34300
H114        H  0.08073761  0.50649289  0.06500344     0.45100
H115        H  0.03731283  0.56606716  0.93234205     0.38700
H116        H  0.00727225  0.36792009  0.97787280     0.35200
H117        H  0.96904530  0.54281508  0.13351514     0.26900
H118        H  0.14608935  0.29761305  0.03135352     0.32900
H119        H  0.11258298  0.35572828  0.90846524     0.38800
H120        H  0.86570392  0.64359659  0.07188716     0.33200
H121        H  0.86832121  0.69327281  0.00472941     0.32100
H122        H  0.89722567  0.67332674  0.91763817     0.33800
H123        H  0.02277459  0.51645971  0.87967437     0.32800
H124        H  0.03914751  0.61919801  0.08263037     0.36800
H125        H  0.17031364  0.60869716  0.98769463     0.29500
H126        H  0.82957467  0.39384418  0.01843401     0.33700
H127        H  0.00829118  0.37811614  0.88790097     0.36600
H128        H  0.83886456  0.69259951  0.97037641     0.29200
H129        H  0.15376816  0.61462063  0.02542633     0.42100
H130        H  0.08042833  0.40819945  0.10201413     0.32100
H131        H  0.99027081  0.48105772  0.11981652     0.39700
H132        H  0.96240805  0.50920495  0.88682568     0.31600
H133        H  0.12425804  0.30902315  0.99484648     0.31700
H134        H  0.84395395  0.38566403  0.98055642     0.31900
Zr135      Zr  0.08933057  0.54107535  0.49907534     2.17500
O136        O  0.16771868  0.57947397  0.48354856    -0.50400
O137        O  0.15923450  0.51427693  0.54345842    -0.73600
O138        O  0.06791224  0.64453241  0.50868760    -0.80400
O139        O  0.13474740  0.41881621  0.43452120    -0.82200
O140        O  0.98115366  0.67477408  0.53283814    -0.77800
O141        O  0.14645858  0.50400229  0.45061574    -0.89400
O142        O  0.13178631  0.45615005  0.57981160    -0.75400
O143        O  0.03663413  0.54168048  0.54857515    -0.84900
O144        O  0.09847928  0.44372555  0.51234469    -0.84600
O145        O  0.99426956  0.59268351  0.48447176    -0.71300
O146        O  0.05052937  0.49999233  0.45401048    -0.83500
Zr147      Zr  0.90950227  0.45595579  0.50313966     2.26400
Zr148      Zr  0.94161841  0.59270848  0.53437786     2.06300
Zr149      Zr  0.05813022  0.40331096  0.46769320     2.10000
Zr150      Zr  0.04372879  0.44457738  0.56100969     1.78800
O151        O  0.05714644  0.36379529  0.41241757    -0.92300
O152        O  0.02595164  0.48182188  0.61713687    -0.40100
O153        O  0.00411003  0.40301868  0.51687350    -0.76700
O154        O  0.94920029  0.49567171  0.54893576    -0.95400
O155        O  0.90140579  0.55260365  0.48925904    -0.88700
O156        O  0.96306266  0.45366761  0.45370002    -0.91500
C157        C  0.16570986  0.48353364  0.56961808     1.02200
C158        C  0.15750983  0.45988913  0.43205391     1.15100
C159        C  0.02690209  0.68362722  0.52119744     1.05900
O160        O  0.94552737  0.62292194  0.59159951    -0.93700
O161        O  0.85632863  0.58484074  0.56210261    -0.89400
O162        O  0.83964656  0.50242378  0.54445531    -0.82600
C163        C  0.82882984  0.54718781  0.56252576     1.12600
O164        O  0.99427771  0.61230325  0.40550154    -0.95700
Zr165      Zr  0.95618668  0.55014070  0.44036305     1.88900
O166        O  0.84482837  0.47385625  0.45590674    -0.72300
O167        O  0.86457392  0.67361931  0.51771429    -0.51600
O168        O  0.88925392  0.64338900  0.43453434    -0.96300
O169        O  0.98172709  0.51176530  0.38504908    -0.53500
O170        O  0.87165229  0.53256645  0.41965635    -0.72800
C171        C  0.83933668  0.50286349  0.42908742     0.99500
O172        O  0.83438914  0.41481866  0.52132502    -0.61700
O173        O  0.13815961  0.32625276  0.48552409    -0.56500
O174        O  0.93474993  0.35174028  0.49742000    -0.93100
O175        O  0.01963498  0.32152723  0.47121822    -0.91600
O176        O  0.10647543  0.34925842  0.56639138    -0.91900
O177        O  0.00250354  0.38697993  0.59730394    -0.90700
C178        C  0.97510414  0.31269622  0.48436478     1.18300
H179        H  0.13768638  0.42299772  0.51554087     0.34300
H180        H  0.93054755  0.49290400  0.56961943     0.45100
H181        H  0.94964606  0.43420869  0.43598223     0.38700
H182        H  0.99113947  0.63032733  0.47631018     0.35200
H183        H  0.05732409  0.45823006  0.63059200     0.26900
H184        H  0.86088910  0.70101710  0.53614139     0.32900
H185        H  0.86742323  0.64118775  0.41417712     0.38800
H186        H  0.11508327  0.34444412  0.59035285     0.33200
H187        H  0.12278404  0.30703216  0.50336786     0.32100
H188        H  0.09031773  0.33013334  0.41193912     0.33800
H189        H  0.96358341  0.48050915  0.38270001     0.32800
H190        H  0.97161682  0.37886171  0.58406898     0.36800
H191        H  0.82654804  0.39264657  0.50228032     0.29500
H192        H  0.17697896  0.59824594  0.50368133     0.33700
H193        H  0.96811542  0.62223657  0.38639679     0.36600
H194        H  0.14504049  0.29901691  0.46688866     0.29200
H195        H  0.85173391  0.38630571  0.53835209     0.42100
H196        H  0.98541773  0.62312321  0.59514511     0.32100
H197        H  0.03364610  0.51938571  0.61628300     0.39700
H198        H  0.02274686  0.49257895  0.38644420     0.31600
H199        H  0.88013926  0.69102974  0.49912120     0.31700
H200        H  0.15160157  0.61074652  0.46787270     0.31900
Zr201      Zr  0.45594512  0.90984464  0.00186049     2.17500
O202        O  0.41685262  0.83192852  0.01749420    -0.50400
O203        O  0.47946993  0.84485013  0.95476385    -0.73600
O204        O  0.35244528  0.93131180  0.99145383    -0.80400
O205        O  0.57712261  0.86400956  0.06737070    -0.82200
O206        O  0.32224000  0.01905870  0.96852236    -0.77800
O207        O  0.49372562  0.84986026  0.04948454    -0.89400
O208        O  0.53130799  0.87865027  0.91732053    -0.75400
O209        O  0.45646409  0.96461445  0.95331706    -0.84900
O210        O  0.55388625  0.90157825  0.99006452    -0.84600
O211        O  0.40350149  0.00427598  0.01728814    -0.71300
O212        O  0.49619417  0.94782627  0.04764587    -0.83500
Zr213      Zr  0.53953536  0.09113188  0.00134514     2.26400
Zr214      Zr  0.40421146  0.05893938  0.96814153     2.06300
Zr215      Zr  0.59312263  0.94189452  0.03560452     2.10000
Zr216      Zr  0.55392818  0.95794357  0.94219207     1.78800
O217        O  0.62447152  0.95012638  0.09218522    -0.92300
O218        O  0.52774634  0.98669004  0.88531657    -0.40100
O219        O  0.59344074  0.99722786  0.98717626    -0.76700
O220        O  0.50150921  0.05217541  0.95458191    -0.95400
O221        O  0.44288857  0.09761408  0.01433538    -0.88700
O222        O  0.54132753  0.03631747  0.05033800    -0.91500
C223        C  0.50517384  0.84321480  0.92693599     1.02200
C224        C  0.53680533  0.84005236  0.06894834     1.15100
C225        C  0.31330650  0.97284363  0.97937937     1.05900
O226        O  0.37450027  0.05629059  0.91073801    -0.93700
O227        O  0.41211668  0.14645281  0.94238595    -0.89400
O228        O  0.49469425  0.16224455  0.96038428    -0.82600
C229        C  0.44985416  0.17399237  0.94237576     1.12600
O230        O  0.39013583  0.99388768  0.09739414    -0.95700
Zr231      Zr  0.44470023  0.04110172  0.06246923     1.88900
O232        O  0.51645690  0.15639919  0.04807328    -0.72300
O233        O  0.32162278  0.13404629  0.98474280    -0.51600
O234        O  0.34828113  0.10200248  0.06735979    -0.96300
O235        O  0.48002093  0.01983653  0.11880128    -0.53500
O236        O  0.45439195  0.12972547  0.08203322    -0.72800
C237        C  0.48378874  0.16285932  0.07339727     0.99500
O238        O  0.57928121  0.16697856  0.98281476    -0.61700
O239        O  0.67513916  0.86322291  0.02263005    -0.56500
O240        O  0.64352918  0.06830100  0.00874620    -0.93100
O241        O  0.67564809  0.97977621  0.03032759    -0.91600
O242        O  0.64455952  0.88627194  0.93868619    -0.91900
O243        O  0.62396700  0.99300760  0.91245550    -0.90700
C244        C  0.68357132  0.02643255  0.01955639     1.18300
H245        H  0.57457034  0.86254098  0.98642856     0.34300
H246        H  0.50444662  0.07175992  0.93424553     0.45100
H247        H  0.55957585  0.05015842  0.06846031     0.38700
H248        H  0.36579021  0.00682497  0.02512847     0.35200
H249        H  0.54851732  0.95430432  0.87155317     0.26900
H250        H  0.29528779  0.13842535  0.96571820     0.32900
H251        H  0.34696696  0.12097625  0.08910742     0.38800
H252        H  0.64793298  0.87435775  0.91516931     0.33200
H253        H  0.70002140  0.85965816  0.04228331     0.32100
H254        H  0.66410580  0.92628908  0.09279174     0.33800
H255        H  0.50382694  0.04581731  0.12316683     0.32800
H256        H  0.63013706  0.02384401  0.92654242     0.36800
H257        H  0.59848269  0.17753479  0.00240568     0.29500
H258        H  0.39832612  0.82251687  0.99730174     0.33700
H259        H  0.36902611  0.02291637  0.11314820     0.36600
H260        H  0.66119324  0.82896178  0.02327035     0.29200
H261        H  0.61014164  0.14924941  0.96720752     0.42100
H262        H  0.38102990  0.01556051  0.90560868     0.32100
H263        H  0.48754829  0.98649469  0.88349743     0.39700
H264        H  0.50730143  0.98191143  0.11723621     0.31600
H265        H  0.30350855  0.11713435  0.00244495     0.31700
H266        H  0.38534156  0.84842624  0.03294627     0.31900
Zr267      Zr  0.54547521  0.08729658  0.49549692     2.17500
O268        O  0.58361949  0.16748639  0.50700572    -0.50400
O269        O  0.52007103  0.14975781  0.44702640    -0.73600
O270        O  0.64929068  0.06353087  0.48636696    -0.80400
O271        O  0.42113999  0.14292288  0.55771839    -0.82200
O272        O  0.68001848  0.97280747  0.46772780    -0.77800
O273        O  0.50707047  0.15191678  0.54098536    -0.89400
O274        O  0.46211589  0.11684168  0.41321437    -0.75400
O275        O  0.54812848  0.02575519  0.44963900    -0.84900
O276        O  0.44843789  0.09396899  0.48250825    -0.84600
O277        O  0.59640370  0.99515394  0.51576005    -0.71300
O278        O  0.50311688  0.05569876  0.54279910    -0.83500
Zr279      Zr  0.46041548  0.90692842  0.50296031     2.26400
Zr280      Zr  0.59810921  0.93343175  0.46955288     2.06300
Zr281      Zr  0.40673953  0.06077790  0.52955799     2.10000
Zr282      Zr  0.45133096  0.03125753  0.43729400     1.78800
O283        O  0.36682462  0.06587951  0.58508324    -0.92300
O284        O  0.49406428  0.00057031  0.38360985    -0.40100
O285        O  0.40846664  0.99880789  0.48374901    -0.76700
O286        O  0.50144764  0.93898664  0.45483256    -0.95400
O287        O  0.55647339  0.90121538  0.51691668    -0.88700
O288        O  0.45656612  0.96848447  0.54908285    -0.91500
C289        C  0.48931082  0.15245362  0.42096214     1.02200
C290        C  0.46219790  0.16592583  0.55895585     1.15100
C291        C  0.68865732  0.02027416  0.47638960     1.05900
O292        O  0.63590382  0.92276892  0.41345892    -0.93700
O293        O  0.59067582  0.84414391  0.44660903    -0.89400
O294        O  0.50725558  0.83098719  0.46511494    -0.82600
C295        C  0.55250300  0.81726800  0.44746090     1.12600
O296        O  0.61412729  0.00591856  0.59541637    -0.95700
Zr297      Zr  0.55266441  0.96424340  0.56214364     1.88900
O298        O  0.47938708  0.84950304  0.55321779    -0.72300
O299        O  0.67679714  0.86065238  0.49290955    -0.51600
O300        O  0.64590929  0.89806924  0.56974890    -0.96300
O301        O  0.51117261  0.99977897  0.61545472    -0.53500
O302        O  0.53743152  0.88174339  0.58736492    -0.72800
C303        C  0.50862179  0.84755446  0.57973817     0.99500
O304        O  0.42016714  0.82812995  0.49143848    -0.61700
O305        O  0.32988322  0.13954813  0.51004847    -0.56500
O306        O  0.35581316  0.93303538  0.50713605    -0.93100
O307        O  0.32423704  0.02277277  0.52699991    -0.91600
O308        O  0.35408792  0.08752339  0.42830905    -0.91900
O309        O  0.39371593  0.98826984  0.40211902    -0.90700
C310        C  0.31596125  0.97590958  0.51697439     1.18300
H311        H  0.42770975  0.13237597  0.47717518     0.34300
H312        H  0.49925369  0.91713251  0.43530443     0.45100
H313        H  0.43675803  0.95784045  0.56761615     0.38700
H314        H  0.63378970  0.99355004  0.52385218     0.35200
H315        H  0.47057722  0.02722321  0.36745214     0.26900
H316        H  0.70381513  0.84915364  0.47432780     0.32900
H317        H  0.64642921  0.88448396  0.59287252     0.38800
H318        H  0.35518758  0.12748157  0.42982183     0.33200
H319        H  0.30852134  0.12245811  0.49416893     0.32100
H320        H  0.33068093  0.09601483  0.58376457     0.33800
H321        H  0.48136362  0.98026111  0.61947901     0.32800
H322        H  0.38854234  0.95589869  0.41520305     0.36800
H323        H  0.39831869  0.82394006  0.51145226     0.29500
H324        H  0.60378811  0.17321096  0.48660443     0.33700
H325        H  0.62167516  0.98330842  0.61606651     0.36600
H326        H  0.30429932  0.15023937  0.52933773     0.29200
H327        H  0.39140279  0.84159682  0.47390784     0.42100
H328        H  0.60338125  0.92133476  0.39928215     0.32100
H329        H  0.53051777  0.01061119  0.38389595     0.39700
H330        H  0.49007913  0.03964440  0.61112967     0.31600
H331        H  0.69572982  0.88114662  0.50828173     0.31700
H332        H  0.61385002  0.15372074  0.52368054     0.31900
O333        O  0.62580303  0.47629089  0.31818248    -0.74400
O334        O  0.63244627  0.55589266  0.29091219    -0.53300
C335        C  0.64865242  0.51656684  0.31262260     0.79300
O336        O  0.50507934  0.38222065  0.17895939    -0.59000
O337        O  0.42948121  0.37532407  0.21009862    -0.52000
C338        C  0.46450370  0.36056471  0.18600258     0.71300
O339        O  0.62719661  0.48601995  0.18456022    -0.73600
O340        O  0.63250916  0.56186240  0.21601027    -0.54100
C341        C  0.64946376  0.52565241  0.19263732     0.77300
O342        O  0.50294958  0.37281994  0.31620642    -0.58700
O343        O  0.42480881  0.37350093  0.28531594    -0.51800
C344        C  0.46065581  0.35415423  0.30864126     0.73900
Zr345      Zr  0.54702139  0.44421318  0.29807552     2.54700
O346        O  0.62443535  0.35915446  0.28991179    -0.79300
O347        O  0.55045798  0.43253302  0.35807723    -0.92700
Zr348      Zr  0.54864851  0.45129057  0.20145394     2.64700
O349        O  0.62670476  0.36550854  0.20446301    -0.97600
O350        O  0.55363445  0.45277671  0.14128174    -0.79700
O351        O  0.58524245  0.47843026  0.25115154    -0.83100
O352        O  0.51391906  0.41380229  0.24841679    -2.17800
O353        O  0.34596234  0.53867568  0.32031833    -0.66400
O354        O  0.33353370  0.47086090  0.28450728    -0.51000
C355        C  0.32190009  0.50086692  0.31087369     0.72300
O356        O  0.46449898  0.66107598  0.18626513    -0.59400
O357        O  0.54069262  0.66154570  0.21874790    -0.51300
C358        C  0.50638656  0.68011625  0.19473776     0.74100
O359        O  0.36245893  0.53751546  0.17229199    -0.70800
O360        O  0.34333621  0.46867898  0.20465740    -0.49400
C361        C  0.33846148  0.49781951  0.17784720     0.75500
O362        O  0.46442776  0.64806353  0.32572378    -0.66100
O363        O  0.54261293  0.65131236  0.29581215    -0.53300
C364        C  0.50866035  0.66546247  0.32049808     0.73900
Zr365      Zr  0.41655667  0.58354320  0.29999577     2.77500
O366        O  0.33781180  0.66745877  0.29178651    -0.96800
O367        O  0.40097168  0.59597383  0.35937685    -0.77700
Zr368      Zr  0.41789618  0.58961931  0.20333672     2.70100
O369        O  0.33101584  0.66218896  0.21608694    -0.78900
O370        O  0.40059083  0.62701501  0.14717794    -0.98000
Zr371      Zr  0.55224335  0.57909701  0.25354993     2.21500
Zr372      Zr  0.41400518  0.45417674  0.24811024     2.11100
O373        O  0.37953294  0.55540541  0.25036768    -2.46700
O374        O  0.45209405  0.62072393  0.25298722    -0.78700
O375        O  0.44766897  0.48321293  0.29848879    -0.70900
O376        O  0.51765534  0.55129993  0.20285669    -2.31800
O377        O  0.51601894  0.54379537  0.30130446    -2.28100
O378        O  0.44964659  0.48972476  0.20044948    -0.72600
H379        H  0.52371558  0.37295624  0.24748545     0.79400
H380        H  0.53330130  0.56560621  0.18386703     0.80400
H381        H  0.33869898  0.56735958  0.25011679     0.82700
H382        H  0.53141102  0.55427514  0.32155372     0.80300
H383        H  0.52030186  0.48371813  0.13462267     0.43300
H384        H  0.41214860  0.59364388  0.13242271     0.42300
H385        H  0.34146191  0.69828608  0.21394549     0.42000
H386        H  0.32072491  0.67602780  0.31405249     0.39900
H387        H  0.42768668  0.56224948  0.36931116     0.43000
H388        H  0.54384256  0.47135699  0.36701811     0.37800
H389        H  0.62084324  0.33390136  0.30843487     0.43900
H390        H  0.64770141  0.36514840  0.18348038     0.40300
H391        H  0.35596680  0.69822473  0.28746453     0.45300
H392        H  0.59058833  0.41365253  0.36327250     0.44000
H393        H  0.65211319  0.37358430  0.22172780     0.44100
H394        H  0.35884645  0.64021231  0.14505294     0.44500
O395        O  0.64644743  0.46442984  0.82257711    -0.74400
O396        O  0.65256021  0.54027497  0.79142414    -0.53300
C397        C  0.66665460  0.50638221  0.81612935     0.79300
O398        O  0.53318051  0.35742778  0.67492342    -0.59000
O399        O  0.46439554  0.34120449  0.70858094    -0.52000
C400        C  0.49428229  0.33323513  0.68202653     0.71300
O401        O  0.65083504  0.46628383  0.68004417    -0.73600
O402        O  0.65300411  0.54281390  0.71184035    -0.54100
C403        C  0.66889026  0.50950261  0.68702124     0.77300
O404        O  0.52664724  0.35881564  0.82509306    -0.58700
O405        O  0.45931934  0.34308737  0.79017030    -0.51800
C406        C  0.48727971  0.33551341  0.81750424     0.73900
Zr407      Zr  0.57999204  0.41742533  0.79851784     2.54700
O408        O  0.65812539  0.33566839  0.78480296    -0.79300
O409        O  0.60570555  0.38489777  0.85494588    -0.92700
Zr410      Zr  0.58324017  0.41849637  0.70199122     2.64700
O411        O  0.66003336  0.33409055  0.71302214    -0.97600
O412        O  0.61036248  0.39882995  0.64428807    -0.79700
O413        O  0.61711723  0.45204732  0.75101042    -0.83100
O414        O  0.54967734  0.38055447  0.74962989    -2.17800
O415        O  0.37199362  0.50691943  0.81728864    -0.66400
O416        O  0.36674964  0.43237724  0.78471065    -0.51000
C417        C  0.35034718  0.46696408  0.80890237     0.72300
O418        O  0.47928140  0.63159733  0.68577099    -0.59400
O419        O  0.55732567  0.63491976  0.71584452    -0.51300
C420        C  0.51940113  0.65343201  0.69360599     0.74100
O421        O  0.38050431  0.50482587  0.67698415    -0.70800
O422        O  0.37206168  0.43077651  0.70902919    -0.49400
C423        C  0.35886926  0.46433663  0.68412091     0.75500
O424        O  0.47643218  0.62837681  0.81695957    -0.66100
O425        O  0.55639327  0.63255822  0.78923059    -0.53300
C426        C  0.51756244  0.64991610  0.81115822     0.73900
Zr427      Zr  0.44239523  0.55071100  0.79711529     2.77500
O428        O  0.35804023  0.62774868  0.78612312    -0.96800
O429        O  0.43084515  0.56179889  0.85678973    -0.77700
Zr430      Zr  0.44617756  0.55093961  0.70086249     2.70100
O431        O  0.35765270  0.62496247  0.70636738    -0.78900
O432        O  0.44825606  0.56261444  0.64092957    -0.98000
Zr433      Zr  0.57661734  0.55254722  0.75141093     2.21500
Zr434      Zr  0.44866294  0.41690815  0.74870474     2.11100
O435        O  0.40950322  0.51707283  0.74832416    -2.46700
O436        O  0.47617127  0.58739477  0.74972187    -0.78700
O437        O  0.48000369  0.45133946  0.79801164    -0.70900
O438        O  0.54571021  0.51840328  0.70146078    -2.31800
O439        O  0.54218513  0.51742866  0.79989583    -2.28100
O440        O  0.48329952  0.45151550  0.70029617    -0.72600
H441        H  0.56086949  0.33970898  0.74952149     0.79400
H442        H  0.55828334  0.53452658  0.68207822     0.80400
H443        H  0.36861873  0.52727737  0.74768690     0.82700
H444        H  0.55376180  0.53269986  0.81989977     0.80300
H445        H  0.57984806  0.42515409  0.63151621     0.43300
H446        H  0.45613783  0.52374782  0.63186783     0.42300
H447        H  0.34939056  0.64062634  0.68375046     0.42000
H448        H  0.34045492  0.63777984  0.80814946     0.39900
H449        H  0.46933293  0.54533907  0.86582642     0.43000
H450        H  0.59478775  0.41937192  0.86885536     0.37800
H451        H  0.69233258  0.34606219  0.79246484     0.43900
H452        H  0.64657992  0.30267045  0.70374961     0.40300
H453        H  0.37262466  0.66027923  0.78001142     0.45300
H454        H  0.64764300  0.37298468  0.85546522     0.44000
H455        H  0.69079689  0.33728995  0.69791242     0.44100
H456        H  0.40853865  0.58101613  0.63457446     0.44500
C457        C  0.45435870  0.30858961  0.32904768    -0.17600
C458        C  0.45999926  0.27312584  0.35035936     0.06400
C459        C  0.47299500  0.23377792  0.37663834     0.08300
C460        C  0.48345413  0.19866539  0.39830280    -0.18500
C461        C  0.52374356  0.69930605  0.34597120    -0.17600
C462        C  0.53713914  0.72165434  0.37004400     0.06400
C463        C  0.55032372  0.74686391  0.39927225     0.08300
C464        C  0.55608738  0.77385075  0.42328721    -0.18500
C465        C  0.46012235  0.20727224  0.58413665    -0.17600
C466        C  0.46345822  0.23716326  0.60719347     0.06400
C467        C  0.47212860  0.26888027  0.63472280     0.08300
C468        C  0.48194082  0.29643074  0.65744442    -0.18500
C469        C  0.50923936  0.80463239  0.60343210    -0.17600
C470        C  0.51367116  0.77230102  0.62611558     0.06400
C471        C  0.51987446  0.73561755  0.65319320     0.08300
C472        C  0.52249599  0.70078170  0.67430562    -0.18500
C473        C  0.47200461  0.30069141  0.84250855    -0.17600
C474        C  0.46017787  0.27542912  0.86588151     0.06400
C475        C  0.44943680  0.24617879  0.89424513     0.08300
C476        C  0.44537478  0.21705321  0.91769079    -0.18500
C477        C  0.50539279  0.79883541  0.90412273    -0.17600
C478        C  0.51018929  0.76581530  0.88165734     0.06400
C479        C  0.51723237  0.72913732  0.85435139     0.08300
C480        C  0.52051232  0.69535491  0.83242940    -0.18500
C481        C  0.45862187  0.31699075  0.16431282    -0.17600
C482        C  0.46185486  0.28318134  0.14251815     0.06400
C483        C  0.47139892  0.24518143  0.11594386     0.08300
C484        C  0.47949749  0.21006048  0.09456907    -0.18500
C485        C  0.53703532  0.80379931  0.09659922    -0.17600
C486        C  0.53321246  0.77916771  0.12183539     0.06400
C487        C  0.52566285  0.75123779  0.15114586     0.08300
C488        C  0.51748820  0.72258473  0.17372453    -0.18500
C489        C  0.28148678  0.48878494  0.33291404    -0.17600
C490        C  0.25314372  0.47687351  0.35446694     0.06400
C491        C  0.22274330  0.46471293  0.38154918     0.08300
C492        C  0.19510947  0.45891886  0.40510264    -0.18500
C493        C  0.79482902  0.50190801  0.40681463    -0.17600
C494        C  0.76264275  0.50644864  0.38403015     0.06400
C495        C  0.72739972  0.51399289  0.35619571     0.08300
C496        C  0.69421836  0.51806270  0.33396719    -0.18500
C497        C  0.31721342  0.45693632  0.66152146    -0.17600
C498        C  0.28509091  0.46001955  0.63885228     0.06400
C499        C  0.24869187  0.47014137  0.61153571     0.08300
C500        C  0.21393988  0.47885479  0.58995090    -0.18500
C501        C  0.78734323  0.55153721  0.58790095    -0.17600
C502        C  0.75982361  0.54726887  0.61191534     0.06400
C503        C  0.73185354  0.53601890  0.64048053     0.08300
C504        C  0.70624458  0.52390739  0.66348128    -0.18500
C505        C  0.30439501  0.46183355  0.82900729    -0.17600
C506        C  0.26860421  0.46699192  0.84988786     0.06400
C507        C  0.22961125  0.47893908  0.87606120     0.08300
C508        C  0.19538330  0.48827169  0.89801110    -0.18500
C509        C  0.70566379  0.51750344  0.83973809    -0.17600
C510        C  0.73407331  0.52535332  0.86256713     0.06400
C511        C  0.76504384  0.53215776  0.89084613     0.08300
C512        C  0.79326910  0.53533261  0.91473617    -0.18500
C513        C  0.30647658  0.48299987  0.15119775    -0.17600
C514        C  0.28313873  0.46986915  0.12739715     0.06400
C515        C  0.25515401  0.45700347  0.09907966     0.08300
C516        C  0.22602191  0.45138428  0.07596701    -0.18500
C517        C  0.80419157  0.51201887  0.10354414    -0.17600
C518        C  0.76966592  0.51834389  0.12523294     0.06400
C519        C  0.73091010  0.52637242  0.15145929     0.08300
C520        C  0.69574293  0.52971148  0.17252607    -0.18500
C521        C  0.25750451  0.97226212  0.51560305    -0.12400
C522        C  0.20750737  0.97335099  0.51360791    -0.13900
C523        C  0.74725153  0.02339208  0.47748547    -0.12400
C524        C  0.79714867  0.02170235  0.48098085    -0.13900
C525        C  0.03049007  0.74213696  0.51999666    -0.12400
C526        C  0.02892847  0.79214967  0.51712735    -0.13900
C527        C  0.97161093  0.25436908  0.48558583    -0.12400
C528        C  0.97344351  0.20428458  0.48741273    -0.13900
C529        C  0.20444587  0.97151636  0.98375944    -0.12400
C530        C  0.25457498  0.96952330  0.98050735    -0.13900
C531        C  0.79175853  0.03070008  0.01671596    -0.12400
C532        C  0.74182781  0.03115161  0.01854695    -0.13900
C533        C  0.02087439  0.74645815  0.98430997    -0.12400
C534        C  0.02000307  0.79628527  0.98673347    -0.13900
C535        C  0.97844508  0.25415878  0.02503192    -0.12400
C536        C  0.97871321  0.20446571  0.02198532    -0.13900
loop_ 
_geom_bond_atom_site_label_1 
_geom_bond_atom_site_label_2 
_geom_bond_distance 
_geom_bond_site_symmetry_2 
_ccdc_geom_bond_type 
N1            C6   1.359   1_554  A
N1            C5   1.360       .  A
N1           H33   1.034       .  S
N2            C9   1.360       .  A
N2           C10   1.360       .  A
N3            C8   1.361   1_554  A
N3            C7   1.360       .  A
N3           H34   1.036       .  S
N4           C11   1.359       .  A
N4           C12   1.359       .  A
C5           C13   1.389   1_554  A
C5           C21   1.428   1_565  A
C6           C22   1.426   1_655  A
C6           C14   1.388       .  A
C7           C15   1.388   1_554  A
C7           C24   1.428   1_455  A
C8           C23   1.427   1_545  A
C8           C16   1.387       .  A
C9           C21   1.430       .  A
C9           C17   1.386       .  A
C10          C24   1.429       .  A
C10          C18   1.387       .  A
C11          C19   1.387       .  A
C11          C22   1.426       .  A
C12          C20   1.386       .  A
C12          C23   1.426       .  A
C13          C14   1.376       .  A
C13          H25   1.082       .  S
C14          H26   1.082       .  S
C15          C16   1.377       .  A
C15          H27   1.082       .  S
C16          H28   1.082       .  S
C17          C18   1.380       .  A
C17          H29   1.082       .  S
C18          H30   1.082       .  S
C19          C20   1.378       .  A
C19          H31   1.082       .  S
C20          H32   1.082       .  S
C21         C531   1.479       .  S
C22         C534   1.474       .  S
C23         C529   1.480       .  S
C24         C536   1.478       .  S
N35          C40   1.360       .  A
N35          C39   1.361       .  A
N35          H67   1.033       .  S
N36          C43   1.358       .  A
N36          C44   1.358       .  A
N37          C42   1.360       .  A
N37          C41   1.360       .  A
N37          H68   1.035       .  S
N38          C45   1.359       .  A
N38          C46   1.359       .  A
C39          C47   1.388       .  A
C39          C55   1.429   1_565  A
C40          C56   1.429   1_655  A
C40          C48   1.388       .  A
C41          C49   1.388       .  A
C41          C58   1.427   1_455  A
C42          C57   1.428   1_545  A
C42          C50   1.389       .  A
C43          C55   1.426       .  A
C43          C51   1.387       .  A
C44          C58   1.425       .  A
C44          C52   1.387       .  A
C45          C53   1.387       .  A
C45          C56   1.428       .  A
C46          C54   1.387       .  A
C46          C57   1.427       .  A
C47          C48   1.377       .  A
C47          H59   1.082       .  S
C48          H60   1.082       .  S
C49          C50   1.376       .  A
C49          H61   1.082       .  S
C50          H62   1.082       .  S
C51          C52   1.377       .  A
C51          H63   1.082       .  S
C52          H64   1.082       .  S
C53          C54   1.379       .  A
C53          H65   1.082       .  S
C54          H66   1.082       .  S
C55         C524   1.475       .  S
C56         C526   1.477       .  S
C57         C522   1.476       .  S
C58         C528   1.472       .  S
Zr69         O70   2.443   1_554  S
Zr69         O71   2.443       .  S
Zr69         O72   2.481       .  S
Zr69         O75   2.450   1_554  S
Zr69         O77   2.381       .  S
Zr69         O78   2.400       .  S
Zr69         O79   2.409   1_654  S
Zr69         O80   2.399   1_554  S
O70         H126   0.991   1_556  S
O70         H134   0.990       .  S
O71          C91   1.282       .  A
O72          C93   1.291       .  A
O73         Zr83   2.424       .  S
O73          C92   1.282       .  A
O74         Zr82   2.463       .  S
O74          C93   1.289   1_455  A
O75          C92   1.287       .  A
O76         Zr84   2.387       .  S
O76          C91   1.273       .  A
O77         Zr82   2.398   1_655  S
O77         Zr84   2.394       .  S
O78         Zr83   2.402   1_554  S
O78         Zr84   2.376       .  S
O78         H113   0.966       .  S
O79         Zr82   2.397   1_556  S
O79         Zr99   2.379       .  S
O79         H116   0.964       .  S
O80         Zr83   2.391       .  S
O80         Zr99   2.369   1_655  S
Zr81        O106   2.443   1_556  S
Zr81        O100   2.446       .  S
Zr81        O108   2.473       .  S
Zr81         O96   2.445   1_556  S
Zr81         O87   2.399   1_456  S
Zr81         O88   2.416   1_556  S
Zr81         O89   2.389       .  S
Zr81         O90   2.388       .  S
Zr82        O101   2.435       .  S
Zr82         O94   2.434       .  S
Zr82         O95   2.435       .  S
Zr82         O88   2.409       .  S
Zr82         O89   2.403   1_554  S
Zr83         O85   2.436       .  S
Zr83        O107   2.438       .  S
Zr83        O109   2.451       .  S
Zr83         O87   2.388   1_556  S
Zr83         O90   2.399   1_655  S
Zr84        O110   2.437       .  S
Zr84        O111   2.434   1_655  S
Zr84         O86   2.437       .  S
Zr84         O87   2.385       .  S
Zr84         O88   2.374   1_655  S
O85         H122   0.990       .  S
O86         H117   0.990       .  S
O86         H131   0.990       .  S
O88         H114   0.964       .  S
O89         Zr99   2.380       .  S
O90         Zr99   2.391       .  S
O90         H115   0.966       .  S
C91         C517   1.423       .  S
C92         C512   1.428       .  S
C93         C535   1.464       .  S
O94         H130   0.990       .  S
O95          C97   1.284       .  A
O96          C97   1.285       .  A
C97         C516   1.433       .  S
O98         Zr99   2.440   1_655  S
O98         H127   0.990   1_655  S
Zr99        O102   2.438       .  S
Zr99        O103   2.439       .  S
Zr99        O104   2.382       .  S
O100        C105   1.283       .  A
O101        H118   0.990       .  S
O101        H133   0.990   1_554  S
O102        H119   0.990       .  S
O103        H123   0.990       .  S
O103        H132   0.990   1_455  S
O104        C105   1.272       .  A
C105        C508   1.423       .  S
O106        H125   0.990   1_554  S
O106        H129   0.991       .  S
O107        H121   0.990   1_556  S
O107        H128   0.990       .  S
O108        C112   1.289       .  A
O109        C112   1.287   1_655  A
O110        H120   0.990       .  S
O111        H124   0.990       .  S
C112        C533   1.460       .  S
Zr135       O136   2.441       .  S
Zr135       O137   2.443       .  S
Zr135       O138   2.479       .  S
Zr135       O141   2.435       .  S
Zr135       O143   2.378       .  S
Zr135       O144   2.398       .  S
Zr135       O145   2.406   1_455  S
Zr135       O146   2.398       .  S
O136        H192   0.990       .  S
O136        H200   0.990       .  S
O137        C157   1.282       .  A
O138        C159   1.290       .  A
O139       Zr149   2.420       .  S
O139        C158   1.281       .  A
O140       Zr148   2.461       .  S
O140        C159   1.288   1_655  A
O141        C158   1.284       .  A
O142       Zr150   2.378       .  S
O142        C157   1.271       .  A
O143       Zr148   2.397   1_455  S
O143       Zr150   2.394       .  S
O144       Zr149   2.396       .  S
O144       Zr150   2.377       .  S
O144        H179   0.967       .  S
O145       Zr148   2.393       .  S
O145       Zr165   2.379       .  S
O145        H182   0.964       .  S
O146       Zr149   2.393       .  S
O146       Zr165   2.373   1_455  S
Zr147       O172   2.441       .  S
Zr147       O166   2.442       .  S
Zr147       O174   2.473       .  S
Zr147       O162   2.442       .  S
Zr147       O153   2.397   1_655  S
Zr147       O154   2.414       .  S
Zr147       O155   2.392       .  S
Zr147       O156   2.382       .  S
Zr148       O167   2.435       .  S
Zr148       O160   2.436       .  S
Zr148       O161   2.426       .  S
Zr148       O154   2.410       .  S
Zr148       O155   2.405       .  S
Zr149       O151   2.436       .  S
Zr149       O173   2.436       .  S
Zr149       O175   2.442       .  S
Zr149       O153   2.388       .  S
Zr149       O156   2.392   1_455  S
Zr150       O176   2.436       .  S
Zr150       O177   2.437       .  S
Zr150       O152   2.438       .  S
Zr150       O153   2.386       .  S
Zr150       O154   2.369   1_455  S
O151        H188   0.990       .  S
O152        H183   0.990       .  S
O152        H197   0.990       .  S
O154        H180   0.963       .  S
O155       Zr165   2.380       .  S
O156       Zr165   2.388       .  S
O156        H181   0.966       .  S
C157        C500   1.419       .  S
C158        C492   1.423       .  S
C159        C525   1.463       .  S
O160        H196   0.990       .  S
O161        C163   1.283       .  A
O162        C163   1.285       .  A
C163        C501   1.428       .  S
O164       Zr165   2.440       .  S
O164        H193   0.990       .  S
Zr165       O168   2.439       .  S
Zr165       O169   2.439       .  S
Zr165       O170   2.381       .  S
O166        C171   1.282       .  A
O167        H184   0.990       .  S
O167        H199   0.990       .  S
O168        H185   0.990       .  S
O169        H189   0.990       .  S
O169        H198   0.990   1_655  S
O170        C171   1.272       .  A
C171        C493   1.419       .  S
O172        H191   0.990       .  S
O172        H195   0.991       .  S
O173        H187   0.990       .  S
O173        H194   0.990       .  S
O174        C178   1.289       .  A
O175        C178   1.285   1_455  A
O176        H186   0.990       .  S
O177        H190   0.990   1_455  S
C178        C527   1.457       .  S
Zr201       O202   2.442       .  S
Zr201       O203   2.448   1_554  S
Zr201       O204   2.485   1_554  S
Zr201       O207   2.445       .  S
Zr201       O209   2.378   1_554  S
Zr201       O210   2.403   1_554  S
Zr201       O211   2.408   1_565  S
Zr201       O212   2.399       .  S
O202        H258   0.990   1_554  S
O202        H266   0.991       .  S
O203        C223   1.284       .  A
O204        C225   1.291       .  A
O205       Zr215   2.420       .  S
O205        C224   1.281       .  A
O206       Zr214   2.463       .  S
O206        C225   1.288   1_545  A
O207        C224   1.286       .  A
O208       Zr216   2.384       .  S
O208        C223   1.272       .  A
O209       Zr214   2.398   1_565  S
O209       Zr216   2.394       .  S
O210       Zr215   2.408   1_556  S
O210       Zr216   2.376       .  S
O210        H245   0.966       .  S
O211       Zr214   2.397   1_554  S
O211       Zr231   2.379       .  S
O211        H248   0.964       .  S
O212       Zr215   2.392       .  S
O212       Zr231   2.372   1_565  S
Zr213       O238   2.440   1_554  S
Zr213       O232   2.440       .  S
Zr213       O240   2.477       .  S
Zr213       O228   2.439   1_554  S
Zr213       O219   2.395   1_544  S
Zr213       O220   2.414   1_554  S
Zr213       O221   2.391       .  S
Zr213       O222   2.385       .  S
Zr214       O233   2.435       .  S
Zr214       O226   2.435       .  S
Zr214       O227   2.440       .  S
Zr214       O220   2.410       .  S
Zr214       O221   2.401   1_556  S
Zr215       O217   2.436       .  S
Zr215       O239   2.438       .  S
Zr215       O241   2.455       .  S
Zr215       O219   2.381   1_554  S
Zr215       O222   2.396   1_565  S
Zr216       O242   2.437       .  S
Zr216       O243   2.436       .  S
Zr216       O218   2.436       .  S
Zr216       O219   2.381       .  S
Zr216       O220   2.375   1_565  S
O217        H254   0.990       .  S
O218        H249   0.990       .  S
O218        H263   0.990       .  S
O220        H246   0.964       .  S
O221       Zr231   2.380       .  S
O222       Zr231   2.392       .  S
O222        H247   0.966       .  S
C223        C477   1.425       .  S
C224        C485   1.426       .  S
C225        C530   1.465       .  S
O226        H262   0.990       .  S
O227        C229   1.285       .  A
O228        C229   1.284       .  A
C229        C476   1.435       .  S
O230       Zr231   2.442   1_565  S
O230        H259   0.990   1_565  S
Zr231       O234   2.440       .  S
Zr231       O235   2.439       .  S
Zr231       O236   2.385       .  S
O232        C237   1.282       .  A
O233        H250   0.990       .  S
O233        H265   0.990   1_556  S
O234        H251   0.990       .  S
O235        H255   0.990       .  S
O235        H264   0.990   1_545  S
O236        C237   1.273       .  A
C237        C484   1.420       .  S
O238        H257   0.990   1_556  S
O238        H261   0.991       .  S
O239        H253   0.990       .  S
O239        H260   0.990       .  S
O240        C244   1.290       .  A
O241        C244   1.287   1_565  A
O242        H252   0.990       .  S
O243        H256   0.990   1_565  S
C244        C532   1.465       .  S
Zr267       O268   2.441       .  S
Zr267       O269   2.459       .  S
Zr267       O270   2.481       .  S
Zr267       O273   2.443       .  S
Zr267       O275   2.379       .  S
Zr267       O276   2.399       .  S
Zr267       O277   2.410   1_545  S
Zr267       O278   2.401       .  S
O268        H324   0.990       .  S
O268        H332   0.990       .  S
O269        C289   1.286       .  A
O270        C291   1.291       .  A
O271       Zr281   2.422       .  S
O271        C290   1.282       .  A
O272       Zr280   2.455       .  S
O272        C291   1.287   1_565  A
O273        C290   1.285       .  A
O274       Zr282   2.392       .  S
O274        C289   1.273       .  A
O275       Zr280   2.403   1_545  S
O275       Zr282   2.394       .  S
O276       Zr281   2.402       .  S
O276       Zr282   2.376       .  S
O276        H311   0.966       .  S
O277       Zr280   2.396       .  S
O277       Zr297   2.382       .  S
O277        H314   0.964       .  S
O278       Zr281   2.394       .  S
O278       Zr297   2.376   1_545  S
Zr279       O304   2.442       .  S
Zr279       O298   2.442       .  S
Zr279       O306   2.476       .  S
Zr279       O294   2.443       .  S
Zr279       O285   2.398       .  S
Zr279       O286   2.416       .  S
Zr279       O287   2.389       .  S
Zr279       O288   2.383       .  S
Zr280       O299   2.436       .  S
Zr280       O292   2.434       .  S
Zr280       O293   2.430       .  S
Zr280       O286   2.412       .  S
Zr280       O287   2.400       .  S
Zr281       O283   2.436       .  S
Zr281       O305   2.436       .  S
Zr281       O307   2.449       .  S
Zr281       O285   2.387   1_545  S
Zr281       O288   2.396   1_545  S
Zr282       O308   2.438       .  S
Zr282       O309   2.436   1_545  S
Zr282       O284   2.437       .  S
Zr282       O285   2.390   1_545  S
Zr282       O286   2.373   1_545  S
O283        H320   0.990       .  S
O284        H315   0.990       .  S
O284        H329   0.990       .  S
O286        H312   0.963       .  S
O287       Zr297   2.378       .  S
O288       Zr297   2.390       .  S
O288        H313   0.966       .  S
C289        C460   1.433       .  S
C290        C465   1.427       .  S
C291        C523   1.460       .  S
O292        H328   0.990       .  S
O293        C295   1.283       .  A
O294        C295   1.285       .  A
C295        C464   1.430       .  S
O296       Zr297   2.440   1_545  S
O296        H325   0.991   1_545  S
Zr297       O300   2.439       .  S
Zr297       O301   2.439       .  S
Zr297       O302   2.384       .  S
O298        C303   1.282       .  A
O299        H316   0.990       .  S
O299        H331   0.990       .  S
O300        H317   0.990       .  S
O301        H321   0.990       .  S
O301        H330   0.990   1_565  S
O302        C303   1.272       .  A
C303        C469   1.420       .  S
O304        H323   0.990       .  S
O304        H327   0.991       .  S
O305        H319   0.990       .  S
O305        H326   0.990       .  S
O306        C310   1.290       .  A
O307        C310   1.286   1_545  A
O308        H318   0.990       .  S
O309        H322   0.990       .  S
C310        C521   1.462       .  S
O333       Zr345   2.416       .  S
O333        C335   1.281       .  A
O334       Zr371   2.421       .  S
O334        C335   1.284       .  A
C335        C496   1.419       .  S
O336       Zr348   2.412       .  S
O336        C338   1.281       .  A
O337       Zr372   2.418       .  S
O337        C338   1.284       .  A
C338        C481   1.419       .  S
O339       Zr348   2.407       .  S
O339        C341   1.280       .  A
O340       Zr371   2.430       .  S
O340        C341   1.286       .  A
C341        C520   1.421       .  S
O342       Zr345   2.408       .  S
O342        C344   1.279       .  A
O343       Zr372   2.441       .  S
O343        C344   1.288       .  A
C344        C457   1.430       .  S
Zr345       O346   2.434       .  S
Zr345       O347   2.438       .  S
Zr345       O351   2.366       .  S
Zr345       O352   2.358       .  S
Zr345       O375   2.365       .  S
Zr345       O377   2.358       .  S
O346        H389   0.990       .  S
O347        H388   0.990       .  S
O347        H392   0.990       .  S
Zr348       O349   2.435       .  S
Zr348       O350   2.433       .  S
Zr348       O352   2.364       .  S
Zr348       O351   2.366       .  S
Zr348       O376   2.365       .  S
Zr348       O378   2.355       .  S
O349        H390   0.990       .  S
O349        H393   0.990       .  S
O350        H383   0.990       .  S
O351       Zr371   2.384       .  S
O352       Zr372   2.382       .  S
O352        H379   0.966       .  S
O353       Zr365   2.432       .  S
O353        C355   1.285       .  A
O354       Zr372   2.406       .  S
O354        C355   1.282       .  A
C355        C489   1.422       .  S
O356       Zr368   2.437       .  S
O356        C358   1.285       .  A
O357       Zr371   2.415       .  S
O357        C358   1.283       .  A
C358        C488   1.426       .  S
O359       Zr368   2.448       .  S
O359        C361   1.287       .  A
O360       Zr372   2.423       .  S
O360        C361   1.285       .  A
C361        C513   1.435       .  S
O362       Zr365   2.443       .  S
O362        C364   1.286       .  A
O363       Zr371   2.425       .  S
O363        C364   1.285       .  A
C364        C461   1.432       .  S
Zr365       O366   2.434       .  S
Zr365       O367   2.434       .  S
Zr365       O373   2.378       .  S
Zr365       O374   2.372       .  S
Zr365       O377   2.370       .  S
Zr365       O375   2.372       .  S
O366        H386   0.990       .  S
O366        H391   0.990       .  S
O367        H387   0.990       .  S
Zr368       O369   2.434       .  S
Zr368       O370   2.439       .  S
Zr368       O374   2.377       .  S
Zr368       O373   2.371       .  S
Zr368       O378   2.365       .  S
Zr368       O376   2.372       .  S
O369        H385   0.990       .  S
O370        H384   0.990       .  S
O370        H394   0.990       .  S
Zr371       O374   2.391       .  S
Zr371       O376   2.384       .  S
Zr371       O377   2.382       .  S
Zr372       O373   2.399       .  S
Zr372       O375   2.376       .  S
Zr372       O378   2.375       .  S
O373        H381   0.964       .  S
O376        H380   0.965       .  S
O377        H382   0.964       .  S
O395       Zr407   2.439       .  S
O395        C397   1.284       .  A
O396       Zr433   2.422       .  S
O396        C397   1.284       .  A
C397        C509   1.428       .  S
O398       Zr410   2.438       .  S
O398        C400   1.285       .  A
O399       Zr434   2.416       .  S
O399        C400   1.284       .  A
C400        C468   1.428       .  S
O401       Zr410   2.442       .  S
O401        C403   1.286       .  A
O402       Zr433   2.425       .  S
O402        C403   1.285       .  A
C403        C504   1.429       .  S
O404       Zr407   2.439       .  S
O404        C406   1.285       .  A
O405       Zr434   2.428       .  S
O405        C406   1.286       .  A
C406        C473   1.436       .  S
Zr407       O408   2.434       .  S
Zr407       O409   2.439       .  S
Zr407       O413   2.377       .  S
Zr407       O414   2.373       .  S
Zr407       O437   2.367       .  S
Zr407       O439   2.377       .  S
O408        H451   0.990       .  S
O409        H450   0.990       .  S
O409        H454   0.991       .  S
Zr410       O411   2.433       .  S
Zr410       O412   2.435       .  S
Zr410       O414   2.379       .  S
Zr410       O413   2.378       .  S
Zr410       O438   2.374       .  S
Zr410       O440   2.365       .  S
O411        H452   0.990       .  S
O411        H455   0.990       .  S
O412        H445   0.990       .  S
O413       Zr433   2.396       .  S
O414       Zr434   2.396       .  S
O414        H441   0.965       .  S
O415       Zr427   2.409       .  S
O415        C417   1.280       .  A
O416       Zr434   2.425       .  S
O416        C417   1.285       .  A
C417        C505   1.422       .  S
O418       Zr430   2.412       .  S
O418        C420   1.281       .  A
O419       Zr433   2.419       .  S
O419        C420   1.284       .  A
C420        C472   1.418       .  S
O421       Zr430   2.406       .  S
O421        C423   1.279       .  A
O422       Zr434   2.421       .  S
O422        C423   1.284       .  A
C423        C497   1.417       .  S
O424       Zr427   2.415       .  S
O424        C426   1.281       .  A
O425       Zr433   2.430       .  S
O425        C426   1.286       .  A
C426        C480   1.424       .  S
Zr427       O428   2.435       .  S
Zr427       O429   2.432       .  S
Zr427       O435   2.360       .  S
Zr427       O436   2.358       .  S
Zr427       O439   2.364       .  S
Zr427       O437   2.362       .  S
O428        H448   0.990       .  S
O428        H453   0.990       .  S
O429        H449   0.990       .  S
Zr430       O431   2.435       .  S
Zr430       O432   2.438       .  S
Zr430       O436   2.364       .  S
Zr430       O435   2.361       .  S
Zr430       O440   2.361       .  S
Zr430       O438   2.354       .  S
O431        H447   0.990       .  S
O432        H446   0.990       .  S
O432        H456   0.990       .  S
Zr433       O436   2.380       .  S
Zr433       O438   2.384       .  S
Zr433       O439   2.384       .  S
Zr434       O435   2.384       .  S
Zr434       O437   2.370       .  S
Zr434       O440   2.378       .  S
O435        H443   0.966       .  S
O438        H442   0.964       .  S
O439        H444   0.965       .  S
C457        C458   1.205       .  T
C458        C459   1.411       .  S
C459        C460   1.205       .  T
C461        C462   1.204       .  T
C462        C463   1.410       .  S
C463        C464   1.204       .  T
C465        C466   1.201       .  T
C466        C467   1.405       .  S
C467        C468   1.202       .  T
C469        C470   1.197       .  T
C470        C471   1.398       .  S
C471        C472   1.196       .  T
C473        C474   1.207       .  T
C474        C475   1.413       .  S
C475        C476   1.206       .  T
C477        C478   1.201       .  T
C478        C479   1.404       .  S
C479        C480   1.200       .  T
C481        C482   1.197       .  T
C482        C483   1.399       .  S
C483        C484   1.198       .  T
C485        C486   1.201       .  T
C486        C487   1.404       .  S
C487        C488   1.201       .  T
C489        C490   1.198       .  T
C490        C491   1.400       .  S
C491        C492   1.198       .  T
C493        C494   1.197       .  T
C494        C495   1.399       .  S
C495        C496   1.197       .  T
C497        C498   1.196       .  T
C498        C499   1.398       .  S
C499        C500   1.197       .  T
C501        C502   1.202       .  T
C502        C503   1.407       .  S
C503        C504   1.203       .  T
C505        C506   1.199       .  T
C506        C507   1.402       .  S
C507        C508   1.200       .  T
C509        C510   1.202       .  T
C510        C511   1.406       .  S
C511        C512   1.202       .  T
C513        C514   1.206       .  T
C514        C515   1.412       .  S
C515        C516   1.205       .  T
C517        C518   1.199       .  T
C518        C519   1.401       .  S
C519        C520   1.198       .  T
C521        C522   1.222       .  T
C523        C524   1.221       .  T
C525        C526   1.223       .  T
C527        C528   1.220       .  T
C529        C530   1.224       .  T
C531        C532   1.224       .  T
C533        C534   1.221       .  T
C535        C536   1.224       .  T
