geometry optimzed in LAMMPS
_audit_creation_date              2020-11-30 
_audit_creation_method            'lammps2cif' 
_symmetry_space_group_name_H-M    'P1' 
_symmetry_Int_Tables_number       1 
_symmetry_cell_setting            triclinic 
loop_ 
_symmetry_equiv_pos_as_xyz 
  x,y,z 
_cell_length_a                    29.8091185 
_cell_length_b                    29.863832929793546 
_cell_length_c                    28.613376318246836 
_cell_angle_alpha                 89.8259970718429 
_cell_angle_beta                  90.23861886414609 
_cell_angle_gamma                 119.44568146312086 
loop_ 
_atom_site_label 
_atom_site_type_symbol 
_atom_site_fract_x 
_atom_site_fract_y 
_atom_site_fract_z 
_atom_site_charge 
C1          C  0.33512111  0.66864249  0.98426581     0.45400
H2          H  0.33642200  0.66877352  0.94558071    -0.03600
C3          C  0.33188871  0.66835324  0.07467861     0.45500
H4          H  0.33062645  0.66829436  0.11331126    -0.03600
C5          C  0.38466947  0.67358905  0.00752870    -0.17300
C6          C  0.32897189  0.71375691  0.00424587    -0.17000
C7          C  0.28956279  0.61836935  0.00424633    -0.17400
C8          C  0.38253266  0.67259798  0.05578243    -0.17400
C9          C  0.32809641  0.71405245  0.05268561    -0.17000
C10         C  0.28749609  0.61866644  0.05256529    -0.17300
C11         C  0.66612371  0.33483372  0.02468794     0.45400
H12         H  0.66604470  0.33563480  0.06334649    -0.03600
C13         C  0.66702097  0.33368192  0.93419704     0.45500
H14         H  0.66752067  0.33328464  0.89550692    -0.03600
C15         C  0.67339162  0.29047242  0.00463316    -0.17300
C16         C  0.61513131  0.32775097  0.00270566    -0.17000
C17         C  0.71026152  0.38514319  0.00354338    -0.17400
C18         C  0.67293387  0.28932366  0.95629502    -0.17400
C19         C  0.61588005  0.32763104  0.95419795    -0.17000
C20         C  0.71129132  0.38426881  0.95526417    -0.17300
O21         O  0.02606455  0.93739309  0.27057753    -0.88400
C22         C  0.09057496  0.04391917  0.16749757     0.87700
Mg23       Mg  0.94778222  0.87701419  0.26680793     1.58100
O24         O  0.05703118  0.08680559  0.26889687    -0.88100
O25         O  0.07431328  0.00066961  0.31760119    -0.75400
C26         C  0.80674343  0.98493136  0.21201559     0.92700
O27         O  0.00192271  0.92233758  0.16050612    -0.75200
O28         O  0.80797064  0.94325526  0.20807139    -0.82800
Mg29       Mg  0.07188762  0.94810387  0.20944598     1.58000
C30         C  0.98464221  0.17475915  0.25530754     0.92600
O31         O  0.14729788  0.97105533  0.24866874    -0.81000
H32         H  0.06434761  0.10151464  0.33746830    -0.06400
C33         C  0.95138539  0.04407252  0.16251723     0.87600
O34         O  0.92188665  0.92284542  0.31336362    -0.75500
O35         O  0.08806499  0.02575560  0.20682522    -0.88300
O36         O  0.02490289  0.17393141  0.24216173    -0.81100
C37         C  0.17309576  0.18426345  0.21830460     0.92700
C38         C  0.18622379  0.01120307  0.26455103     0.92600
Mg39       Mg  0.92279618  0.05055466  0.26275244     1.58000
O40         O  0.84708033  0.02778689  0.22081421    -0.81000
O41         O  0.99211040  0.07602262  0.31216732    -0.75300
O42         O  0.17371166  0.14325435  0.22902524    -0.81100
O43         O  0.05501402  0.86621277  0.21358918    -0.82800
O44         O  0.82241758  0.85369993  0.24345587    -0.81100
C45         C  0.03931904  0.08917845  0.30719782     0.87000
O46         O  0.90671310  0.97231116  0.26677010    -0.88300
O47         O  0.96948236  0.06068037  0.20159806    -0.88400
O48         O  0.91814664  0.99719978  0.15624475    -0.75400
Mg49       Mg  0.11961281  0.07018768  0.26972892     1.58000
O50         O  0.13142413  0.18550795  0.21232117    -0.82800
H51         H  0.02843209  0.92737530  0.33938444    -0.06500
O52         O  0.93717895  0.91118411  0.20403492    -0.88100
H53         H  0.92949434  0.89703449  0.13522560    -0.06400
H54         H  0.89426767  0.96909856  0.33559772    -0.06500
C55         C  0.95478021  0.90923808  0.16562664     0.87000
C56         C  0.04264665  0.95354964  0.31020827     0.87600
C57         C  0.90644416  0.95510221  0.30620522     0.87600
H58         H  0.96499453  0.06989944  0.13269496    -0.06500
O59         O  0.07602007  0.07666573  0.15978059    -0.75500
Mg60       Mg  0.87440280  0.92739155  0.20468626     1.58000
H61         H  0.10408059  0.03037030  0.13856907    -0.06500
C62         C  0.01264246  0.82445203  0.21672065     0.92600
O63         O  0.86511569  0.81351512  0.26577617    -0.82800
C64         C  0.82338901  0.81433589  0.25887468     0.92700
O65         O  0.18531912  0.05264768  0.27210102    -0.82800
Mg66       Mg  0.04850940  0.12120682  0.20575529     1.58200
O67         O  0.97028748  0.82316199  0.22664498    -0.81100
O68         O  0.94149718  0.13399176  0.26073207    -0.82800
C69         C  0.70479463  0.01821771  0.18771058     0.80200
N70         N  0.75005863  0.01779770  0.18537474    -0.78100
C71         C  0.75647790  0.98271662  0.21030059     0.82600
N72         N  0.71785113  0.94893081  0.23839662    -0.78100
C73         C  0.67331490  0.95074069  0.24282656     0.82700
N74         N  0.66717264  0.98574175  0.21721933    -0.79800
C75         C  0.28684901  0.97475648  0.24907106     0.80200
N76         N  0.32619611  0.01212622  0.27403552    -0.78100
C77         C  0.32079577  0.04888000  0.29718375     0.82600
N78         N  0.27503865  0.04843512  0.29405774    -0.78100
C79         C  0.23465550  0.01024266  0.27068419     0.82700
N80         N  0.24074396  0.97343525  0.24866199    -0.79800
C81         C  0.30891896  0.28066021  0.19440236     0.80200
N82         N  0.26302930  0.23620000  0.19292892    -0.78100
C83         C  0.22212696  0.23237212  0.21703892     0.82600
N84         N  0.22786537  0.27210221  0.24397971    -0.78100
C85         C  0.27365251  0.31634905  0.24625850     0.82700
N86         N  0.31406608  0.32064700  0.22092400    -0.79800
C87         C  0.95582285  0.27637233  0.29137152     0.80200
N88         N  0.98969805  0.31624973  0.26485645    -0.78100
C89         C  0.02436980  0.31176117  0.23760813     0.82600
N90         N  0.02379797  0.26601607  0.23664439    -0.78100
C91         C  0.98817444  0.22500504  0.26135365     0.82700
N92         N  0.95403490  0.23021376  0.28874275    -0.79800
C93         C  0.68777664  0.71302914  0.24509633     0.80200
N94         N  0.73183330  0.75909954  0.24205740    -0.78100
C95         C  0.77453542  0.76748921  0.26641917     0.82600
N96         N  0.77282054  0.73036021  0.29472299    -0.78100
C97         C  0.72868783  0.68500976  0.29856835     0.82700
N98         N  0.68671402  0.67597179  0.27317433    -0.79800
C99         C  0.04800421  0.72401588  0.23840859     0.80200
N100        N  0.01203504  0.68452216  0.21250435    -0.78100
C101        C  0.97768737  0.69097916  0.18599163     0.82600
N102        N  0.97754182  0.73639831  0.18696258    -0.78100
C103        C  0.01369837  0.77617679  0.21233184     0.82700
N104        N  0.04910833  0.77000746  0.23727683    -0.79800
C105        C  0.67463820  0.33872077  0.57026495     0.45400
H106        H  0.67900349  0.33673324  0.60800775    -0.03600
C107        C  0.67304537  0.34459818  0.48090185     0.45500
H108        H  0.67599341  0.34981510  0.44338999    -0.03600
C109        C  0.68515576  0.39176120  0.55395637    -0.17300
C110        C  0.71505740  0.32820294  0.54577229    -0.17000
C111        C  0.62005246  0.30163972  0.54934801    -0.17400
C112        C  0.68363472  0.39508155  0.50613693    -0.17400
C113        C  0.71381657  0.33128086  0.49784245    -0.17000
C114        C  0.62125185  0.30050259  0.49995075    -0.17300
C115        C  0.33159883  0.65999330  0.52360046     0.45400
H116        H  0.33323976  0.65516608  0.56067791    -0.03600
C117        C  0.33609825  0.66900530  0.43418877     0.45500
H118        H  0.34028234  0.67597420  0.39734400    -0.03600
C119        C  0.31573550  0.60815255  0.49785048    -0.17300
C120        C  0.29516982  0.67980413  0.50442417    -0.17000
C121        C  0.38585907  0.69974488  0.50675040    -0.17400
C122        C  0.31598452  0.61217668  0.44924102    -0.17400
C123        C  0.29677483  0.68249129  0.45548868    -0.17000
C124        C  0.38859699  0.70431754  0.45894326    -0.17300
O125        O  0.90941955  0.93378561  0.72689676    -0.88400
C126        C  0.95071573  0.04010573  0.83108890     0.87700
Mg127      Mg  0.93109419  0.87509497  0.72641548     1.58100
O128        O  0.01848841  0.08501712  0.72548283    -0.88100
O129        O  0.91325161  0.99512342  0.68258401    -0.75400
C130        C  0.18476990  0.99592982  0.76985193     0.92700
O131        O  0.92796652  0.92119214  0.83495946    -0.75200
O132        O  0.14514686  0.95198013  0.77669502    -0.82800
Mg133      Mg  0.87603669  0.94208411  0.79078775     1.58000
C134        C  0.17956818  0.17798883  0.73576000     0.92600
O135        O  0.81712095  0.95940111  0.75288728    -0.81000
H136        H  0.02110043  0.09932962  0.65699122    -0.06400
C137        C  0.09215976  0.04396455  0.82539828     0.87600
O138        O  0.99886162  0.92249153  0.67664654    -0.75500
O139        O  0.93311045  0.02200206  0.79218553    -0.88300
O140        O  0.13683239  0.17587910  0.74478883    -0.81100
C141        C  0.00232172  0.18272080  0.77921485     0.92700
C142        C  0.81429263  0.99951553  0.74235200     0.92600
Mg143      Mg  0.12223958  0.05424666  0.72366353     1.58000
O144        O  0.18075362  0.03483994  0.75756446    -0.81000
O145        O  0.07239757  0.07754094  0.67887571    -0.75300
O146        O  0.96119777  0.14256503  0.76646158    -0.81100
O147        O  0.81522647  0.85755908  0.79192346    -0.82800
O148        O  0.03761180  0.85476388  0.73868298    -0.81100
C149        C  0.03662764  0.08816147  0.68610229     0.87000
O150        O  0.06469720  0.97443650  0.71991054    -0.88300
O151        O  0.08678430  0.06005548  0.78714621    -0.88400
O152        O  0.08272996  0.99789778  0.83061500    -0.75400
Mg153      Mg  0.93873042  0.06548963  0.73018900     1.58000
O154        O  0.04410813  0.18240821  0.78707977    -0.82800
H155        H  0.89003929  0.92283573  0.65923572    -0.06500
O156        O  0.97869300  0.90941712  0.78718606    -0.88100
H157        H  0.97899970  0.89880405  0.85616703    -0.06400
H158        H  0.06975349  0.97113554  0.65046052    -0.06500
C159        C  0.96241595  0.90879772  0.82703973     0.87000
C160        C  0.90321452  0.94901927  0.68857017     0.87600
C161        C  0.04589133  0.95653246  0.68126850     0.87600
H162        H  0.10417926  0.06934077  0.85526092    -0.06500
O163        O  0.99783847  0.07328171  0.83673465    -0.75500
Mg164      Mg  0.05892873  0.92917353  0.78109050     1.58000
H165        H  0.92594380  0.02599391  0.86113850    -0.06500
C166        C  0.81835561  0.81733361  0.78389162     0.92600
O167        O  0.95243106  0.81259147  0.72741200    -0.82800
C168        C  0.99548024  0.81370249  0.72961576     0.92700
O169        O  0.85413602  0.04352825  0.73737568    -0.82800
Mg170      Mg  0.06538329  0.11963715  0.78699501     1.58200
O171        O  0.85863952  0.81938782  0.76675877    -0.81100
O172        O  0.18350770  0.13785327  0.73063965    -0.82800
C173        C  0.29462788  0.97668542  0.80458918     0.80200
N174        N  0.24626690  0.97031202  0.80119411    -0.78100
C175        C  0.23726841  0.00244860  0.77395809     0.82600
N176        N  0.27682815  0.03992413  0.74886687    -0.78100
C177        C  0.32518578  0.04589763  0.75132270     0.82700
N178        N  0.33373044  0.01430655  0.77971273    -0.79800
C179        C  0.70524724  0.02318939  0.76235761     0.80200
N180        N  0.75341046  0.02895917  0.76195826    -0.78100
C181        C  0.76312175  0.99513966  0.73865295     0.82600
N182        N  0.72443787  0.95555310  0.71499963    -0.78100
C183        C  0.67648739  0.95037097  0.71407805     0.82700
N184        N  0.66685450  0.98387928  0.73815157    -0.79800
C185        C  0.97233399  0.28482996  0.74706953     0.80200
N186        N  0.01033788  0.32614149  0.76982115    -0.78100
C187        C  0.04460564  0.32063931  0.79745369     0.82600
N188        N  0.04112393  0.27368711  0.80195100    -0.78100
C189        C  0.00285093  0.23215285  0.77980307     0.82700
N190        N  0.96862377  0.23800034  0.75268838    -0.79800
C191        C  0.31186155  0.28298020  0.75813689     0.80200
N192        N  0.26916476  0.23576576  0.75695513    -0.78100
C193        C  0.22622250  0.22837675  0.73385034     0.82600
N194        N  0.22615589  0.26834899  0.71129100    -0.78100
C195        C  0.26959581  0.31508766  0.70986348     0.82700
N196        N  0.31199646  0.32216145  0.73388317    -0.79800
C197        C  0.03452340  0.71803912  0.69849091     0.80200
N198        N  0.00297126  0.67804940  0.72633961    -0.78100
C199        C  0.96670965  0.68049348  0.75305883     0.82600
N200        N  0.96275616  0.72395024  0.75122835    -0.78100
C201        C  0.99588500  0.76508847  0.72516386     0.82700
N202        N  0.03209354  0.76219857  0.69900275    -0.79800
C203        C  0.68888519  0.71504656  0.81938452     0.80200
N204        N  0.68408471  0.67503615  0.79323933    -0.78100
C205        C  0.72384154  0.67997293  0.76652183     0.82600
N206        N  0.76840789  0.72569840  0.76628742    -0.78100
C207        C  0.77291121  0.76652485  0.79094166     0.82700
N208        N  0.73284035  0.76117948  0.81732265    -0.79800
C209        C  0.27217314  0.35683007  0.67957536     0.01300
C210        C  0.29965043  0.40887712  0.69419977     0.04100
C211        C  0.30651049  0.44846218  0.66318757    -0.11900
C212        C  0.28280736  0.43637814  0.61891298     0.23400
C213        C  0.25239784  0.38469045  0.60559918    -0.12500
C214        C  0.24944500  0.34520216  0.63445717     0.04800
C215        C  0.28965399  0.47813647  0.58641756     0.27300
C216        C  0.25668046  0.49884335  0.58930687    -0.13200
C217        C  0.26374333  0.53940167  0.55955236     0.05400
C218        C  0.30436837  0.56042216  0.52611048    -0.09200
C219        C  0.33568689  0.53694964  0.52218419     0.06200
C220        C  0.32845781  0.49640000  0.55233225    -0.13500
Br221      Br  0.21395314  0.36798079  0.54796814    -0.05600
Br222      Br  0.32650997  0.42691087  0.75704537     0.00000
Br223      Br  0.21099165  0.55793992  0.56122777     0.00500
Br224      Br  0.37182075  0.46532231  0.54753745    -0.03900
Br225      Br  0.21891938  0.27650365  0.60880191     0.00600
Br226      Br  0.34866296  0.51961384  0.68092587    -0.03200
Br227      Br  0.20034577  0.46961794  0.63359455    -0.04100
Br228      Br  0.38801159  0.55789788  0.47534594    -0.00100
C229        C  0.07198179  0.71396505  0.66843916     0.01300
C230        C  0.05556491  0.68482651  0.62698671     0.04100
C231        C  0.09171465  0.68132907  0.59810675    -0.11900
C232        C  0.14418057  0.70769206  0.61036628     0.23400
C233        C  0.16057266  0.73704217  0.65178453    -0.12500
C234        C  0.12431099  0.73967685  0.68105269     0.04800
C235        C  0.18195711  0.70099867  0.58241484     0.27300
C236        C  0.19953154  0.66864390  0.59969695    -0.13200
C237        C  0.24404928  0.67122529  0.58109772     0.05400
C238        C  0.26197598  0.69365482  0.53582661    -0.09200
C239        C  0.24722055  0.73044924  0.52147445     0.06200
C240        C  0.20700540  0.73346448  0.54447983    -0.13500
Br241      Br  0.23252584  0.77184752  0.66907938    -0.05600
Br242      Br  0.98372997  0.65011399  0.60963935     0.00000
Br243      Br  0.28486985  0.66080808  0.62848346     0.00500
Br244      Br  0.18747693  0.78381637  0.52621349    -0.03900
Br245      Br  0.14537976  0.77594049  0.73974179     0.00600
Br246      Br  0.06968635  0.63922697  0.54265824    -0.03200
Br247      Br  0.16480101  0.62373670  0.65216429    -0.04100
Br248      Br  0.29064290  0.78750175  0.48162399    -0.00100
C249        C  0.63585829  0.91024022  0.68490233     0.01300
C250        C  0.63863572  0.91544033  0.63591051     0.04100
C251        C  0.59930452  0.87811396  0.60774452    -0.11900
C252        C  0.55847564  0.83403271  0.62837857     0.23400
C253        C  0.55676777  0.82802141  0.67739853    -0.12500
C254        C  0.59401901  0.86734405  0.70566221     0.04800
C255        C  0.51398837  0.79775432  0.59923134     0.27300
C256        C  0.46903085  0.80164697  0.59903853    -0.13200
C257        C  0.42654969  0.76829037  0.57130644     0.05400
C258        C  0.42952309  0.73242579  0.54036942    -0.09200
C259        C  0.47509256  0.72853883  0.54176354     0.06200
C260        C  0.51666480  0.76054125  0.57133963    -0.13500
Br261      Br  0.50277580  0.76627179  0.70552815    -0.05600
Br262      Br  0.69446473  0.97583728  0.60770827     0.00000
Br263      Br  0.36699317  0.77654456  0.57627904     0.00500
Br264      Br  0.57772821  0.75364818  0.57428491    -0.03900
Br265      Br  0.58633489  0.86433062  0.77257965     0.00600
Br266      Br  0.59977150  0.88868734  0.54113753    -0.03200
Br267      Br  0.46692981  0.85495964  0.63604615    -0.04100
Br268      Br  0.48106136  0.67801959  0.50554992    -0.00100
C269        C  0.75308884  0.31865662  0.57331653     0.01300
C270        C  0.80726153  0.34986734  0.56702499     0.04100
C271        C  0.84208894  0.34189813  0.59443416    -0.11900
C272        C  0.82385071  0.30319308  0.62862321     0.23400
C273        C  0.77066360  0.27191971  0.63526304    -0.12500
C274        C  0.73546846  0.27978505  0.60833856     0.04800
C275        C  0.86095384  0.29727586  0.65926750     0.27300
C276        C  0.88620466  0.27107446  0.64302911    -0.13200
C277        C  0.92390006  0.26851625  0.67098190     0.05400
C278        C  0.93484828  0.29020197  0.71642787    -0.09200
C279        C  0.90815646  0.31512094  0.73300129     0.06200
C280        C  0.87196762  0.31926383  0.70420823    -0.13500
Br281      Br  0.74642195  0.21828621  0.68206814    -0.05600
Br282      Br  0.83645045  0.40819450  0.52578381     0.00000
Br283      Br  0.96218256  0.23770887  0.64531066     0.00500
Br284      Br  0.83675975  0.35473377  0.72628969    -0.03900
Br285      Br  0.66337873  0.23515340  0.62021610     0.00600
Br286      Br  0.91566449  0.38571323  0.58703091    -0.03200
Br287      Br  0.86830734  0.23824628  0.58249691    -0.04100
Br288      Br  0.91839519  0.34120088  0.79604058    -0.00100
C289        C  0.36807292  0.08519023  0.72210336     0.01300
C290        C  0.37718082  0.13633473  0.71966649     0.04100
C291        C  0.41783818  0.17313288  0.69217344    -0.11900
C292        C  0.45030378  0.15987328  0.66733254     0.23400
C293        C  0.44173823  0.10929128  0.66970121    -0.12500
C294        C  0.40066768  0.07192826  0.69656053     0.04800
C295        C  0.49262528  0.19918346  0.63784581     0.27300
C296        C  0.48263531  0.20737939  0.59148310    -0.13200
C297        C  0.52114013  0.24784479  0.56491516     0.05400
C298        C  0.57256894  0.27510440  0.58178921    -0.09200
C299        C  0.57737386  0.27529348  0.63157667     0.06200
C300        C  0.53973489  0.23454046  0.65831044    -0.13500
Br301      Br  0.48638560  0.09153741  0.63535677    -0.05600
Br302      Br  0.33591231  0.15748537  0.75536174     0.00000
Br303      Br  0.49803416  0.27640775  0.51641351     0.00500
Br304      Br  0.55136426  0.22950889  0.72405879    -0.03900
Br305      Br  0.38804676  0.00205623  0.69530817     0.00600
Br306      Br  0.42936374  0.24220506  0.68783398    -0.03200
Br307      Br  0.41535832  0.16395802  0.56518757    -0.04100
Br308      Br  0.61722640  0.33814975  0.66661562    -0.00100
C309        C  0.68982281  0.43248024  0.58763142     0.01300
C310        C  0.73170406  0.45601193  0.61940880     0.04100
C311        C  0.73824452  0.49769898  0.64716052    -0.11900
C312        C  0.70142325  0.51410211  0.64580119     0.25000
C313        C  0.65748130  0.48812098  0.61747390    -0.12500
C314        C  0.65095513  0.44654410  0.58975784     0.04800
C315        C  0.70708941  0.55644124  0.67662040     0.27300
C316        C  0.68392940  0.54518669  0.72097940    -0.13200
C317        C  0.68985097  0.58522533  0.75078718     0.05400
C318        C  0.71769395  0.63713732  0.73554557    -0.09200
C319        C  0.73903232  0.64777378  0.68983231     0.06200
C320        C  0.73485661  0.60762334  0.66121901    -0.13500
Br321      Br  0.60558270  0.50904550  0.61769578    -0.05600
Br322      Br  0.77932688  0.43070598  0.62776071     0.00000
Br323      Br  0.66093048  0.56758111  0.81286996     0.00500
Br324      Br  0.76686794  0.62222686  0.60035454    -0.03900
Br325      Br  0.58433950  0.40327486  0.56317891     0.00600
Br326      Br  0.79796417  0.53308430  0.68703927    -0.03200
Br327      Br  0.64390647  0.47426631  0.74047096    -0.04100
Br328      Br  0.77038558  0.71626969  0.66351707    -0.00100
C329        C  0.08368290  0.71659373  0.27010220     0.01300
C330        C  0.10784532  0.68822087  0.25567215     0.04100
C331        C  0.14288262  0.68339356  0.28573554    -0.11900
C332        C  0.15508315  0.70769353  0.32965841     0.23400
C333        C  0.13100593  0.73553984  0.34424382    -0.12500
C334        C  0.09408723  0.73840416  0.31553761     0.04800
C335        C  0.19124627  0.70165122  0.36163234     0.27300
C336        C  0.17195410  0.66349185  0.39626823    -0.13200
C337        C  0.20588794  0.65696188  0.42629750     0.05400
C338        C  0.26006549  0.68917942  0.42282284    -0.09200
C339        C  0.27891992  0.72592526  0.38570273     0.06200
C340        C  0.24461024  0.73308147  0.35667373    -0.13500
Br341      Br  0.14881220  0.76971114  0.40398855    -0.05600
Br342      Br  0.09450287  0.65637115  0.19472380     0.00000
Br343      Br  0.17619514  0.59999659  0.46829888     0.00500
Br344      Br  0.27027660  0.78758108  0.31086255    -0.03900
Br345      Br  0.05432900  0.76756679  0.34151444     0.00600
Br346      Br  0.17461292  0.64339667  0.26725931    -0.03200
Br347      Br  0.09821830  0.61971945  0.40190638    -0.04100
Br348      Br  0.35121979  0.76919397  0.37368713    -0.00100
C349        C  0.72632802  0.64573103  0.33011897     0.01300
C350        C  0.72888967  0.60349738  0.31189052     0.04100
C351        C  0.72662996  0.56554485  0.34221089    -0.11900
C352        C  0.71996897  0.56929765  0.39051684     0.23400
C353        C  0.71757633  0.61186318  0.40868692    -0.12500
C354        C  0.72076236  0.65019486  0.37833777     0.04800
C355        C  0.71051014  0.52619329  0.42157418     0.27300
C356        C  0.66152172  0.48249584  0.42223976    -0.13200
C357        C  0.65220832  0.44041980  0.45063444     0.05400
C358        C  0.69163014  0.44220311  0.47991146    -0.09200
C359        C  0.73996642  0.48829319  0.48102578     0.06200
C360        C  0.74969118  0.52930623  0.45085768    -0.13500
Br361      Br  0.70828810  0.61672439  0.47483398    -0.05600
Br362      Br  0.73357356  0.59726403  0.24527230     0.00000
Br363      Br  0.58383788  0.38277674  0.44977584     0.00500
Br364      Br  0.81739035  0.58947413  0.44782034    -0.03900
Br365      Br  0.71414914  0.70709277  0.40216540     0.00600
Br366      Br  0.73153800  0.50798485  0.31768866    -0.03200
Br367      Br  0.60705694  0.48092067  0.38380410    -0.04100
Br368      Br  0.79536946  0.49622975  0.52072016    -0.00100
C369        C  0.74577984  0.31982521  0.46398914     0.01300
C370        C  0.74616532  0.27250243  0.46609310     0.04100
C371        C  0.77951264  0.26387261  0.43753266    -0.11900
C372        C  0.81224166  0.30183598  0.40599811     0.23400
C373        C  0.81057974  0.34773093  0.40161226    -0.12500
C374        C  0.77641343  0.35612980  0.42911990     0.04800
C375        C  0.84865449  0.29376503  0.37709709     0.27300
C376        C  0.89779421  0.30709321  0.39494472    -0.13200
C377        C  0.93290256  0.30061244  0.36709835     0.05400
C378        C  0.91944006  0.28267548  0.32097802    -0.09200
C379        C  0.87172909  0.27230902  0.30231373     0.06200
C380        C  0.83547920  0.27603920  0.33077525    -0.13500
Br381      Br  0.85749889  0.40014317  0.35888350    -0.05600
Br382      Br  0.69839097  0.21662383  0.50427116     0.00000
Br383      Br  0.00003747  0.31803155  0.39123194     0.00500
Br384      Br  0.76823105  0.25765485  0.30636419    -0.03900
Br385      Br  0.77544296  0.41921517  0.41856843     0.00600
Br386      Br  0.78099901  0.19998405  0.44134477    -0.03200
Br387      Br  0.91736595  0.33598101  0.45679459    -0.04100
Br388      Br  0.85861117  0.25698485  0.23678162    -0.00100
C389        C  0.29781798  0.56707560  0.41423735     0.01300
C390        C  0.26508682  0.51536017  0.42829654     0.04100
C391        C  0.26632277  0.47439829  0.40525988    -0.11900
C392        C  0.29407160  0.48335902  0.36364902     0.23400
C393        C  0.31753560  0.53274040  0.34393470    -0.12500
C394        C  0.31520221  0.57327292  0.36691303     0.04800
C395        C  0.28832994  0.43928659  0.33516577     0.27300
C396        C  0.32534649  0.42316748  0.33759000    -0.13200
C397        C  0.32103811  0.38329297  0.30834811     0.05400
C398        C  0.27913645  0.35899775  0.27669518    -0.09200
C399        C  0.24124144  0.37447721  0.27545356     0.06200
C400        C  0.24609258  0.41457689  0.30443560    -0.13500
Br401      Br  0.34888136  0.54337737  0.28297267    -0.05600
Br402      Br  0.20279710  0.49765254  0.46108568     0.00000
Br403      Br  0.37135642  0.36062778  0.31405855     0.00500
Br404      Br  0.19492628  0.43631648  0.30208818    -0.03900
Br405      Br  0.31372777  0.62334242  0.32492944     0.00600
Br406      Br  0.22612252  0.40496231  0.42813013    -0.03200
Br407      Br  0.38142099  0.45562547  0.38168255    -0.04100
Br408      Br  0.18313514  0.34246814  0.23306982    -0.00100
C409        C  0.58095940  0.25932496  0.46691626     0.01300
C410        C  0.56882694  0.27120561  0.42135648     0.04100
C411        C  0.52060490  0.23909555  0.40087154    -0.11900
C412        C  0.49042329  0.18870077  0.41675271     0.23400
C413        C  0.50695440  0.17177191  0.45562679    -0.12500
C414        C  0.55149190  0.20667309  0.48088473     0.04800
C415        C  0.44639096  0.15209576  0.38731566     0.27300
C416        C  0.39620749  0.14276736  0.39619668    -0.13200
C417        C  0.35488302  0.10929640  0.36725495     0.05400
C418        C  0.36423514  0.08772080  0.32658496    -0.09200
C419        C  0.41600528  0.10173425  0.31558426     0.06200
C420        C  0.45616577  0.13148461  0.34698736    -0.13500
Br421      Br  0.46793759  0.10040123  0.47388728    -0.05600
Br422      Br  0.61818520  0.31684856  0.37581681     0.00000
Br423      Br  0.28631493  0.09349183  0.38592715     0.00500
Br424      Br  0.52564656  0.14578777  0.33411134    -0.03900
Br425      Br  0.57354355  0.17877237  0.53083329     0.00600
Br426      Br  0.49680383  0.26304778  0.34829119    -0.03200
Br427      Br  0.38471384  0.17811253  0.44700039    -0.04100
Br428      Br  0.43451263  0.08571966  0.25561348    -0.00100
C429        C  0.43590329  0.74262562  0.43217999     0.01300
C430        C  0.45602055  0.79665010  0.43668572     0.04100
C431        C  0.49794523  0.83165405  0.40923439    -0.11900
C432        C  0.51987211  0.81362925  0.37621964     0.23400
C433        C  0.50109766  0.76063036  0.37178697    -0.12500
C434        C  0.45937996  0.72530507  0.39919032     0.04800
C435        C  0.55926310  0.85005561  0.34289418     0.27300
C436        C  0.54344226  0.86103068  0.30002326    -0.13200
C437        C  0.58014469  0.89438479  0.26745339     0.05400
C438        C  0.63356881  0.91725708  0.27772104    -0.09200
C439        C  0.64893147  0.90815753  0.32220939     0.06200
C440        C  0.61196245  0.87368024  0.35396556    -0.13500
Br441      Br  0.53239336  0.73712935  0.32652527    -0.05600
Br442      Br  0.42291468  0.82480319  0.47414801     0.00000
Br443      Br  0.55570944  0.90718438  0.20895225     0.00500
Br444      Br  0.63316405  0.85826719  0.41288709    -0.03900
Br445      Br  0.43541937  0.65347642  0.38999590     0.00600
Br446      Br  0.52403556  0.90491181  0.41437532    -0.03200
Br447      Br  0.47078149  0.82914433  0.28612474    -0.04100
Br448      Br  0.71989402  0.94633237  0.34261687    -0.00100
C449        C  0.69481763  0.05854416  0.79058763     0.01300
C450        C  0.71107768  0.06781988  0.83772556     0.04100
C451        C  0.70755736  0.10605490  0.86320610    -0.11900
C452        C  0.68379077  0.13220672  0.84321755     0.23400
C453        C  0.66356874  0.12012565  0.79753377    -0.12500
C454        C  0.67035466  0.08441911  0.77068817     0.04800
C455        C  0.67991802  0.17214149  0.87072596     0.27300
C456        C  0.64113424  0.15765885  0.90425833    -0.13200
C457        C  0.63964390  0.19497955  0.93314051     0.05400
C458        C  0.67548786  0.24834293  0.92686042    -0.09200
C459        C  0.71258173  0.26226557  0.89053145     0.06200
C460        C  0.71603379  0.22420924  0.86434196    -0.13500
Br461      Br  0.62649194  0.15256044  0.77217089    -0.05600
Br462      Br  0.73467027  0.02569921  0.86892227     0.00000
Br463      Br  0.58388774  0.17048098  0.97681779     0.00500
Br464      Br  0.77155656  0.24272672  0.82041257    -0.03900
Br465      Br  0.64831718  0.07329560  0.70621133     0.00600
Br466      Br  0.73629974  0.12357555  0.92534047    -0.03200
Br467      Br  0.58902310  0.08592847  0.90917651    -0.04100
Br468      Br  0.76121011  0.33267922  0.87616014    -0.00100
C469        C  0.68038822  0.25278248  0.03509328     0.01300
C470        C  0.72156182  0.24249492  0.02694889     0.04100
C471        C  0.72370813  0.20225756  0.05054342    -0.11900
C472        C  0.68538097  0.17204640  0.08275811     0.23400
C473        C  0.64614041  0.18325957  0.09331633    -0.12500
C474        C  0.64453596  0.22450508  0.07107090     0.04800
C475        C  0.68946148  0.13186081  0.10946646     0.27300
C476        C  0.66745869  0.08135992  0.09212628    -0.13200
C477        C  0.67161375  0.04355586  0.11817483     0.05400
C478        C  0.69831894  0.05668064  0.16112750    -0.09200
C479        C  0.71992964  0.10708770  0.17850323     0.06200
C480        C  0.71524984  0.14461900  0.15274261    -0.13500
Br481      Br  0.59391712  0.14063500  0.13815630    -0.05600
Br482      Br  0.77912481  0.28577550  0.98801291     0.00000
Br483      Br  0.64130015  0.97411161  0.09499501     0.00500
Br484      Br  0.74328622  0.21363333  0.17635871    -0.03900
Br485      Br  0.59067879  0.23807212  0.09010711     0.00600
Br486      Br  0.78009338  0.18880743  0.04014921    -0.03200
Br487      Br  0.63184699  0.06450516  0.03288084    -0.04100
Br488      Br  0.75503960  0.12406454  0.23799416    -0.00100
C489        C  0.57219552  0.32229174  0.92285502     0.01300
C490        C  0.55141808  0.35594690  0.92758485     0.04100
C491        C  0.50963564  0.34956237  0.89963711    -0.11900
C492        C  0.48636840  0.30843954  0.86811657     0.23400
C493        C  0.50582926  0.27460894  0.86313613    -0.12500
C494        C  0.55032471  0.28329045  0.88785204     0.04800
C495        C  0.44176518  0.30141832  0.83953294     0.27300
C496        C  0.39190275  0.27530044  0.85840014    -0.13200
C497        C  0.34984053  0.27114240  0.83250191     0.05400
C498        C  0.35717403  0.29157604  0.78665139    -0.09200
C499        C  0.40776239  0.31939565  0.76846893     0.06200
C500        C  0.44966766  0.32315046  0.79453567    -0.13500
Br501      Br  0.46908621  0.21457244  0.82389925    -0.05600
Br502      Br  0.58200305  0.41463035  0.96821820     0.00000
Br503      Br  0.28339917  0.24232352  0.86248907     0.00500
Br504      Br  0.51820229  0.35735402  0.76857327    -0.03900
Br505      Br  0.57801903  0.23944542  0.87221572     0.00600
Br506      Br  0.48362310  0.39730133  0.90396755    -0.03200
Br507      Br  0.38165558  0.24515574  0.91997953    -0.04100
Br508      Br  0.42089611  0.35321962  0.70830026    -0.00100
C509        C  0.93317412  0.63714872  0.78530058     0.01300
C510        C  0.91830868  0.58522101  0.77402860     0.04100
C511        C  0.88548349  0.54490457  0.80399379    -0.11900
C512        C  0.86615874  0.55528067  0.84473537     0.23400
C513        C  0.88117739  0.60628810  0.85680067    -0.12500
C514        C  0.91563655  0.64719883  0.82818493     0.04800
C515        C  0.82730994  0.51196255  0.87323604     0.27300
C516        C  0.77484118  0.49222142  0.86362226    -0.13200
C517        C  0.73725896  0.44968275  0.88864460     0.05400
C518        C  0.75182588  0.42719262  0.92541700    -0.09200
C519        C  0.80555617  0.44655779  0.93331412     0.06200
C520        C  0.84273199  0.48862355  0.90741391    -0.13500
Br521      Br  0.85304965  0.61959616  0.91237242    -0.05600
Br522      Br  0.93985299  0.56660710  0.71711395     0.00000
Br523      Br  0.66646583  0.42544811  0.87206927     0.00500
Br524      Br  0.91549371  0.51346904  0.91668560    -0.03900
Br525      Br  0.94065538  0.71641048  0.85110821     0.00600
Br526      Br  0.86499869  0.47437858  0.78888016    -0.03200
Br527      Br  0.75535265  0.52441207  0.81526329    -0.04100
Br528      Br  0.83077805  0.41347181  0.97499539    -0.00100
C529        C  0.56954883  0.31973490  0.03266369     0.01300
C530        C  0.57575233  0.35525976  0.06870038     0.04100
C531        C  0.53332710  0.34859347  0.09563771    -0.11900
C532        C  0.48484347  0.30495681  0.08949922     0.23400
C533        C  0.47862736  0.26768607  0.05657476    -0.12500
C534        C  0.51998011  0.27532654  0.02759599     0.04800
C535        C  0.43977655  0.29871968  0.11682817     0.27300
C536        C  0.42806946  0.27360242  0.16055434    -0.13200
C537        C  0.38412923  0.26611348  0.18528935     0.05400
C538        C  0.35316642  0.28575164  0.16735364    -0.09200
C539        C  0.36529000  0.31152602  0.12403627     0.06200
C540        C  0.40801202  0.31723270  0.09843622    -0.13500
Br541      Br  0.41295371  0.20497327  0.05278502    -0.05600
Br542      Br  0.64099092  0.41488630  0.08188652     0.00000
Br543      Br  0.36619253  0.22898921  0.24373651     0.00500
Br544      Br  0.42324853  0.35034380  0.03803689    -0.03900
Br545      Br  0.50715880  0.22096554  0.98496614     0.00600
Br546      Br  0.54086730  0.39949132  0.14128510    -0.03200
Br547      Br  0.47272362  0.25022436  0.18668572    -0.04100
Br548      Br  0.32294639  0.33859076  0.09971106    -0.00100
C549        C  0.93869276  0.64764467  0.15862917     0.01300
C550        C  0.88935562  0.61666255  0.17751656     0.04100
C551        C  0.85266889  0.57344530  0.15274652    -0.11900
C552        C  0.86499402  0.56160103  0.10867470     0.23400
C553        C  0.91414573  0.59329072  0.08935009    -0.12500
C554        C  0.95102888  0.63632032  0.11434890     0.04800
C555        C  0.82545261  0.51659808  0.08231631     0.27300
C556        C  0.81672171  0.46697060  0.09257540    -0.13200
C557        C  0.77729835  0.42388644  0.06935940     0.05400
C558        C  0.74783909  0.43029607  0.03325189    -0.09200
C559        C  0.75581031  0.48074117  0.02499491     0.06200
C560        C  0.79433118  0.52331262  0.04933960    -0.13500
Br561      Br  0.93070466  0.57761448  0.02876635    -0.05600
Br562      Br  0.87244809  0.63371984  0.23746157     0.00000
Br563      Br  0.76746565  0.35747978  0.08696233     0.00500
Br564      Br  0.80401494  0.59151846  0.03890280    -0.03900
Br565      Br  0.01796528  0.68054998  0.08765937     0.00600
Br566      Br  0.78545198  0.52997384  0.17901444    -0.03200
Br567      Br  0.86002609  0.45871802  0.13839992    -0.04100
Br568      Br  0.71134938  0.49300069  0.98453185    -0.00100
C569        C  0.25327861  0.57369328  0.97297488     0.01300
C570        C  0.24738440  0.52350145  0.97812551     0.04100
C571        C  0.21614377  0.48350188  0.94702259    -0.11900
C572        C  0.18729611  0.49129758  0.91239678     0.23400
C573        C  0.19142960  0.53992328  0.90738467    -0.12500
C574        C  0.22575424  0.58134012  0.93582966     0.04800
C575        C  0.15112242  0.44762064  0.88233967     0.27300
C576        C  0.16738104  0.43821447  0.83898325    -0.13200
C577        C  0.13278248  0.39645696  0.81100951     0.05400
C578        C  0.08186172  0.36417058  0.82632579    -0.09200
C579        C  0.06611421  0.37300221  0.87006548     0.06200
C580        C  0.10052036  0.41468329  0.89789072    -0.13500
Br581      Br  0.14852664  0.54892048  0.86172243    -0.05600
Br582      Br  0.28447444  0.50777792  0.02411356     0.00000
Br583      Br  0.15517406  0.38293866  0.75218027     0.00500
Br584      Br  0.07861581  0.42665996  0.95768930    -0.03900
Br585      Br  0.23216216  0.64738425  0.92308574     0.00600
Br586      Br  0.21340344  0.41745908  0.95048541    -0.03200
Br587      Br  0.23722856  0.48226732  0.81849849    -0.04100
Br588      Br  0.99758880  0.32681448  0.89249837    -0.00100
C589        C  0.06180984  0.35633212  0.20897527     0.01300
C590        C  0.07774222  0.34886270  0.16420729     0.04100
C591        C  0.11386742  0.39139193  0.13811492    -0.11900
C592        C  0.13222414  0.44151087  0.15504908     0.23400
C593        C  0.11573110  0.44938506  0.19857980    -0.12500
C594        C  0.08162133  0.40730330  0.22599512     0.04800
C595        C  0.17119291  0.48640221  0.12848011     0.27300
C596        C  0.22354100  0.50567663  0.13837933    -0.13200
C597        C  0.26090499  0.55147074  0.11748613     0.05400
C598        C  0.24683875  0.57533534  0.08157518    -0.09200
C599        C  0.19341579  0.55606248  0.07283241     0.06200
C600        C  0.15598775  0.51232587  0.09672146    -0.13500
Br601      Br  0.14137116  0.51866381  0.22092831    -0.05600
Br602      Br  0.04905503  0.28149547  0.13608223     0.00000
Br603      Br  0.33046271  0.57818647  0.13917423     0.00500
Br604      Br  0.08340466  0.48799894  0.08709055    -0.03900
Br605      Br  0.06581125  0.42154841  0.28795477     0.00600
Br606      Br  0.13957430  0.38160118  0.07934687    -0.03200
Br607      Br  0.24408633  0.46777395  0.17976196    -0.04100
Br608      Br  0.16951072  0.59173425  0.03277803    -0.00100
C609        C  0.32389523  0.75224689  0.97284020     0.01300
C610        C  0.36100127  0.77960953  0.93740273     0.04100
C611        C  0.35827118  0.81787068  0.91058013    -0.11900
C612        C  0.31682988  0.82715369  0.91602524     0.23400
C613        C  0.27820631  0.79854614  0.94876768    -0.12500
C614        C  0.28181443  0.76191221  0.97743137     0.04800
C615        C  0.31346412  0.86664707  0.88673528     0.27300
C616        C  0.32815674  0.91567591  0.90537209    -0.13200
C617        C  0.32319269  0.95240387  0.87814989     0.05400
C618        C  0.30378634  0.94023992  0.83226925    -0.09200
C619        C  0.29256210  0.89274163  0.81263095     0.06200
C620        C  0.29608040  0.85541836  0.84006302    -0.13500
Br621      Br  0.21935573  0.80913563  0.95306078    -0.05600
Br622      Br  0.41830036  0.76881188  0.92541800     0.00000
Br623      Br  0.34381415  0.01970303  0.90308752     0.00500
Br624      Br  0.27615663  0.78863665  0.81405862    -0.03900
Br625      Br  0.22524559  0.72249083  0.01895218     0.00600
Br626      Br  0.41231582  0.85930692  0.86671852    -0.03200
Br627      Br  0.35484701  0.93220665  0.96823651    -0.04100
Br628      Br  0.27529478  0.88055489  0.74730287    -0.00100
C629        C  0.43071187  0.68006342  0.97977328     0.01300
C630        C  0.42504824  0.64422114  0.94437859     0.04100
C631        C  0.46850938  0.64758202  0.92196539    -0.11900
C632        C  0.51761059  0.68896731  0.93124097     0.23400
C633        C  0.52381396  0.72668644  0.96361156    -0.12500
C634        C  0.48104281  0.72209047  0.98833565     0.04800
C635        C  0.56199501  0.69575475  0.90306531     0.27300
C636        C  0.59355902  0.67592320  0.91876485    -0.13200
C637        C  0.63564283  0.68275339  0.89152949     0.05400
C638        C  0.64567870  0.70888897  0.84842489    -0.09200
C639        C  0.61392998  0.72850726  0.83271865     0.06200
C640        C  0.57212072  0.72195786  0.86008647    -0.13500
Br641      Br  0.59123309  0.78637790  0.97160392    -0.05600
Br642      Br  0.35917866  0.58911109  0.92535735     0.00000
Br643      Br  0.68026513  0.65746535  0.91368821     0.00500
Br644      Br  0.52770048  0.74786038  0.83885271    -0.03900
Br645      Br  0.49303661  0.77807413  0.02882641     0.00600
Br646      Br  0.46146624  0.59557442  0.87776755    -0.03200
Br647      Br  0.57838216  0.63886794  0.97712192    -0.04100
Br648      Br  0.62702246  0.76304398  0.77315144    -0.00100
C649        C  0.32520113  0.75464442  0.08250619     0.01300
C650        C  0.28784496  0.74017747  0.11871201     0.04100
C651        C  0.28349613  0.77781870  0.14468466    -0.11900
C652        C  0.31723424  0.83015262  0.13683680     0.23400
C653        C  0.35554806  0.84538384  0.10273276    -0.12500
C654        C  0.36002993  0.80819753  0.07600666     0.04800
C655        C  0.31167712  0.86910514  0.16450922     0.27300
C656        C  0.27949240  0.88773445  0.14813485    -0.13200
C657        C  0.27168896  0.92253778  0.17526501     0.05400
C658        C  0.29512750  0.93792212  0.22012331    -0.09200
C659        C  0.32778158  0.91893965  0.23618690     0.06200
C660        C  0.33644248  0.88534196  0.20802622    -0.13500
Br661      Br  0.40198086  0.91799318  0.09321919    -0.05600
Br662      Br  0.23949836  0.66961887  0.13304395     0.00000
Br663      Br  0.23101028  0.95039532  0.14819608     0.00500
Br664      Br  0.38219342  0.86087889  0.22874173    -0.03900
Br665      Br  0.41835293  0.83307309  0.03524483     0.00600
Br666      Br  0.22950707  0.75848810  0.19018490    -0.03200
Br667      Br  0.24614395  0.86498407  0.08799525    -0.04100
Br668      Br  0.35908558  0.93579526  0.29761534    -0.00100
C669        C  0.64148198  0.70296292  0.21778949     0.01300
C670        C  0.64625291  0.71766149  0.17026870     0.04100
C671        C  0.60312466  0.71230990  0.14549606    -0.11900
C672        C  0.55445561  0.68909044  0.16693064     0.23400
C673        C  0.54867933  0.67046048  0.21294234    -0.12500
C674        C  0.59209546  0.67807669  0.23876555     0.04800
C675        C  0.50899708  0.68318643  0.14064043     0.27300
C676        C  0.49041458  0.71749850  0.14815405    -0.13200
C677        C  0.44703035  0.71190510  0.12337036     0.05400
C678        C  0.42436350  0.67428415  0.08743330    -0.09200
C679        C  0.44274881  0.63867238  0.08179178     0.06200
C680        C  0.48409462  0.64276235  0.10882363    -0.13500
Br681      Br  0.48073273  0.63359172  0.23988449    -0.05600
Br682      Br  0.71025699  0.74016234  0.13723767     0.00000
Br683      Br  0.42253095  0.75875089  0.13867453     0.00500
Br684      Br  0.50675400  0.59235812  0.10339721    -0.03900
Br685      Br  0.58281858  0.65458310  0.30290483     0.00600
Br686      Br  0.61045616  0.73661076  0.08200331    -0.03200
Br687      Br  0.52636758  0.77343460  0.19168015    -0.04100
Br688      Br  0.40993745  0.58053239  0.04096094    -0.00100
loop_ 
_geom_bond_atom_site_label_1 
_geom_bond_atom_site_label_2 
_geom_bond_distance 
_geom_bond_site_symmetry_2 
_ccdc_geom_bond_type 
C1            H2   1.108       .  S
C1            C7   1.556   1_556  S
C1            C6   1.557   1_556  S
C1            C5   1.557   1_556  S
C3            H4   1.106       .  S
C3            C9   1.555       .  S
C3            C8   1.551       .  S
C3           C10   1.556       .  S
C5            C8   1.382       .  D
C5          C629   1.516   1_554  S
C6            C9   1.387       .  D
C6          C609   1.522   1_554  S
C7           C10   1.384       .  D
C7          C569   1.527   1_554  S
C8          C678   1.519       .  S
C9          C649   1.521       .  S
C10         C598   1.514       .  S
C11          H12   1.107       .  S
C11          C17   1.553       .  S
C11          C16   1.558       .  S
C11          C15   1.555       .  S
C13          H14   1.107       .  S
C13          C19   1.556       .  S
C13          C18   1.552       .  S
C13          C20   1.558       .  S
C15          C18   1.383   1_554  D
C15         C469   1.514       .  S
C16          C19   1.388   1_554  D
C16         C529   1.525       .  S
C17          C20   1.383   1_554  D
C17         C558   1.520       .  S
C18         C458   1.520       .  S
C19         C489   1.521       .  S
C20         C518   1.520       .  S
O21         Mg23   2.138   1_455  S
O21         Mg29   2.148       .  S
O21          C56   1.236       .  S
C22          O35   1.234       .  S
C22          O59   1.268       .  A
C22          H61   1.084       .  S
Mg23         O52   2.161       .  S
Mg23         O67   2.331       .  S
Mg23         O63   2.253       .  S
Mg23         O34   2.303       .  S
O24         Mg66   2.151       .  S
O24         Mg49   2.153       .  S
O24          C45   1.236       .  S
O25          C56   1.269   1_545  A
O25         Mg49   2.292       .  S
C26          O28   1.268       .  A
C26          O40   1.278   1_565  A
C26          C71   1.468       .  S
O27          C55   1.269   1_455  A
O27         Mg29   2.304       .  S
O28         Mg60   2.254       .  S
Mg29         O35   2.125   1_565  S
Mg29         O43   2.244       .  S
Mg29         O31   2.292       .  S
C30          O68   1.273       .  A
C30          O36   1.271   1_655  A
C30          C91   1.462       .  S
O31          C38   1.273   1_565  A
H32          C45   1.081       .  S
C33          O47   1.234       .  S
C33          O48   1.269   1_545  A
C33          H58   1.086       .  S
O34          C57   1.271       .  A
O35         Mg49   2.158       .  S
O36         Mg66   2.273       .  S
C37          O50   1.272       .  A
C37          O42   1.270       .  A
C37          C83   1.462       .  S
C38          O65   1.270       .  A
C38          C79   1.468       .  S
Mg39         O46   2.145   1_545  S
Mg39         O47   2.166       .  S
Mg39         O40   2.339       .  S
Mg39         O41   2.299       .  S
Mg39         O68   2.271       .  S
O41          C45   1.270   1_655  A
O42         Mg49   2.293       .  S
O43          C62   1.269       .  A
O44          C64   1.268       .  A
O44         Mg60   2.263       .  S
O46         Mg60   2.148       .  S
O46          C57   1.237       .  S
O47         Mg66   2.155   1_655  S
O48         Mg60   2.301       .  S
Mg49         O65   2.263       .  S
O50         Mg66   2.272       .  S
H51          C56   1.077       .  S
O52         Mg60   2.151       .  S
O52          C55   1.234       .  S
H53          C55   1.088       .  S
H54          C57   1.081       .  S
O59         Mg66   2.294       .  S
C62          O67   1.277   1_455  A
C62         C103   1.463       .  S
O63          C64   1.271       .  A
C64          C95   1.457       .  S
C69         C478   1.465       .  S
C69          N70   1.357       .  A
C69          N74   1.358   1_545  A
N70          C71   1.354   1_545  A
C71          N72   1.360       .  A
N72          C73   1.361       .  A
C73         C438   1.496       .  S
C73          N74   1.358       .  A
C75         C658   1.494       .  S
C75          N76   1.357   1_565  A
C75          N80   1.355       .  A
N76          C77   1.360       .  A
C77         C418   1.500       .  S
C77          N78   1.360       .  A
N78          C79   1.358       .  A
C79          N80   1.356   1_545  A
C81         C538   1.474       .  S
C81          N82   1.360       .  A
C81          N86   1.360       .  A
N82          C83   1.358       .  A
C83          N84   1.355       .  A
N84          C85   1.356       .  A
C85         C398   1.486       .  S
C85          N86   1.359       .  A
C87         C378   1.462       .  S
C87          N88   1.354       .  A
C87          N92   1.355       .  A
N88          C89   1.356   1_655  A
C89         C589   1.493       .  S
C89          N90   1.358       .  A
N90          C91   1.360   1_455  A
C91          N92   1.355       .  A
C93         C669   1.480       .  S
C93          N94   1.360       .  A
C93          N98   1.353       .  A
N94          C95   1.360       .  A
C95          N96   1.352       .  A
N96          C97   1.351       .  A
C97         C349   1.452       .  S
C97          N98   1.352       .  A
C99         C329   1.492       .  S
C99         N100   1.358       .  A
C99         N104   1.358       .  A
N100        C101   1.359   1_455  A
C101        C549   1.469       .  S
C101        N102   1.359       .  A
N102        C103   1.356   1_655  A
C103        N104   1.357       .  A
C105        H106   1.092       .  S
C105        C111   1.567       .  S
C105        C110   1.556       .  S
C105        C109   1.528       .  S
C107        H108   1.082       .  S
C107        C113   1.529       .  S
C107        C112   1.559       .  S
C107        C114   1.555       .  S
C109        C112   1.374       .  D
C109        C309   1.505       .  S
C110        C113   1.376       .  D
C110        C269   1.515       .  S
C111        C114   1.415       .  D
C111        C298   1.548       .  S
C112        C358   1.505       .  S
C113        C369   1.514       .  S
C114        C409   1.547       .  S
C115        H116   1.074       .  S
C115        C121   1.540       .  S
C115        C120   1.567       .  S
C115        C119   1.564       .  S
C117        H118   1.070       .  S
C117        C123   1.542       .  S
C117        C122   1.556       .  S
C117        C124   1.561       .  S
C119        C122   1.395       .  D
C119        C218   1.523       .  S
C120        C123   1.402       .  D
C120        C238   1.539       .  S
C121        C124   1.373       .  D
C121        C258   1.523       .  S
C122        C389   1.548       .  S
C123        C338   1.522       .  S
C124        C429   1.517       .  S
O125       Mg127   2.146       .  S
O125       Mg133   2.157       .  S
O125        C160   1.234       .  S
C126        O139   1.236       .  S
C126        O163   1.269       .  A
C126        H165   1.077       .  S
Mg127       O156   2.156       .  S
Mg127       O171   2.289       .  S
Mg127       O167   2.249       .  S
Mg127       O138   2.305       .  S
O128       Mg170   2.166       .  S
O128       Mg153   2.156   1_455  S
O128        C149   1.235       .  S
O129        C160   1.268       .  A
O129       Mg153   2.300   1_565  S
C130        O132   1.278       .  A
C130        O144   1.274   1_565  A
C130        C175   1.483   1_565  S
O131        C159   1.272       .  A
O131       Mg133   2.305       .  S
O132       Mg164   2.316       .  S
Mg133       O139   2.145   1_565  S
Mg133       O147   2.272       .  S
Mg133       O135   2.324       .  S
C134        O172   1.269       .  A
C134        O140   1.272       .  A
C134        C193   1.464       .  S
O135        C142   1.277       .  A
H136        C149   1.080       .  S
C137        O151   1.235       .  S
C137        O152   1.270   1_545  A
C137        H162   1.080       .  S
O138        C161   1.271   1_655  A
O139       Mg153   2.153       .  S
O140       Mg170   2.304       .  S
C141        O154   1.269       .  A
C141        O146   1.276   1_455  A
C141        C189   1.469       .  S
C142        O169   1.274   1_565  A
C142        C181   1.469       .  S
Mg143       O150   2.148   1_545  S
Mg143       O151   2.155       .  S
Mg143       O144   2.301       .  S
Mg143       O145   2.308       .  S
Mg143       O172   2.264       .  S
O145        C149   1.271       .  A
O146       Mg153   2.306       .  S
O147        C166   1.271       .  A
O148        C168   1.278   1_455  A
O148       Mg164   2.331       .  S
O150       Mg164   2.164       .  S
O150        C161   1.235       .  S
O151       Mg170   2.165       .  S
O152       Mg164   2.302       .  S
Mg153       O169   2.282       .  S
O154       Mg170   2.255       .  S
H155        C160   1.081       .  S
O156       Mg164   2.171   1_655  S
O156        C159   1.238       .  S
H157        C159   1.081       .  S
H158        C161   1.082       .  S
O163       Mg170   2.295   1_655  S
C166        O171   1.272       .  A
C166        C207   1.469       .  S
O167        C168   1.269       .  A
C168        C201   1.464       .  S
C173        C618   1.474       .  S
C173        N174   1.361       .  A
C173        N178   1.357   1_565  A
N174        C175   1.359   1_565  A
C175        N176   1.365       .  A
N176        C177   1.364       .  A
C177        C289   1.496       .  S
C177        N178   1.358       .  A
C179        C449   1.481       .  S
C179        N180   1.359       .  A
C179        N184   1.358   1_545  A
N180        C181   1.357   1_545  A
C181        N182   1.358       .  A
N182        C183   1.360       .  A
C183        C249   1.473       .  S
C183        N184   1.359       .  A
C185        C278   1.487       .  S
C185        N186   1.362   1_655  A
C185        N190   1.357       .  A
N186        C187   1.361       .  A
C187        C578   1.478       .  S
C187        N188   1.360       .  A
N188        C189   1.360       .  A
C189        N190   1.357   1_455  A
C191        C498   1.486       .  S
C191        N192   1.358       .  A
C191        N196   1.357       .  A
N192        C193   1.357       .  A
C193        N194   1.356       .  A
N194        C195   1.360       .  A
C195        C209   1.487       .  S
C195        N196   1.359       .  A
C197        C229   1.464       .  S
C197        N198   1.357       .  A
C197        N202   1.356       .  A
N198        C199   1.358   1_455  A
C199        C509   1.501       .  S
C199        N200   1.360       .  A
N200        C201   1.360       .  A
C201        N202   1.353   1_655  A
C203        C638   1.469       .  S
C203        N204   1.358       .  A
C203        N208   1.358       .  A
N204        C205   1.359       .  A
C205        C318   1.494       .  S
C205        N206   1.359       .  A
N206        C207   1.359       .  A
C207        N208   1.357       .  A
C209        C210   1.418       .  A
C209        C214   1.418       .  A
C210        C211   1.409       .  A
C210       Br222   1.933       .  S
C211        C212   1.407       .  A
C211       Br226   1.931       .  S
C212        C215   1.485       .  S
C212        C213   1.405       .  A
C213        C214   1.405       .  A
C213       Br221   1.926       .  S
C214       Br225   1.935       .  S
C215        C216   1.398       .  A
C215        C220   1.404       .  A
C216        C217   1.407       .  A
C216       Br227   1.938       .  S
C217        C218   1.426       .  A
C217       Br223   1.907       .  S
C218        C219   1.421       .  A
C219        C220   1.413       .  A
C219       Br228   1.917       .  S
C220       Br224   1.932       .  S
C229        C230   1.409       .  A
C229        C234   1.404       .  A
C230        C231   1.405       .  A
C230       Br242   1.928   1_455  S
C231        C232   1.405       .  A
C231       Br246   1.929       .  S
C232        C235   1.476       .  S
C232        C233   1.411       .  A
C233        C234   1.403       .  A
C233       Br241   1.931       .  S
C234       Br245   1.929       .  S
C235        C236   1.395       .  A
C235        C240   1.402       .  A
C236        C237   1.398       .  A
C236       Br247   1.939       .  S
C237        C238   1.436       .  A
C237       Br243   1.942       .  S
C238        C239   1.428       .  A
C239        C240   1.411       .  A
C239       Br248   1.926       .  S
C240       Br244   1.930       .  S
C249        C250   1.408       .  A
C249        C254   1.407       .  A
C250        C251   1.407       .  A
C250       Br262   1.930       .  S
C251        C252   1.410       .  A
C251       Br266   1.930       .  S
C252        C255   1.487       .  S
C252        C253   1.411       .  A
C253        C254   1.408       .  A
C253       Br261   1.929       .  S
C254       Br265   1.926       .  S
C255        C256   1.401       .  A
C255        C260   1.404       .  A
C256        C257   1.408       .  A
C256       Br267   1.941       .  S
C257        C258   1.428       .  A
C257       Br263   1.915       .  S
C258        C259   1.419       .  A
C259        C260   1.413       .  A
C259       Br268   1.912       .  S
C260       Br264   1.931       .  S
C269        C270   1.425       .  A
C269        C274   1.423       .  A
C270        C271   1.409       .  A
C270       Br282   1.921       .  S
C271        C272   1.403       .  A
C271       Br286   1.936       .  S
C272        C275   1.485       .  S
C272        C273   1.403       .  A
C273        C274   1.408       .  A
C273       Br281   1.933       .  S
C274       Br285   1.923       .  S
C275        C276   1.407       .  A
C275        C280   1.408       .  A
C276        C277   1.409       .  A
C276       Br287   1.932       .  S
C277        C278   1.418       .  A
C277       Br283   1.932       .  S
C278        C279   1.414       .  A
C279        C280   1.407       .  A
C279       Br288   1.930       .  S
C280       Br284   1.930       .  S
C289        C290   1.415       .  A
C289        C294   1.422       .  A
C290        C291   1.410       .  A
C290       Br302   1.932       .  S
C291        C292   1.408       .  A
C291       Br306   1.921       .  S
C292        C295   1.493       .  S
C292        C293   1.404       .  A
C293        C294   1.412       .  A
C293       Br301   1.930       .  S
C294       Br305   1.930       .  S
C295        C296   1.405       .  A
C295        C300   1.403       .  A
C296        C297   1.412       .  A
C296       Br307   1.925       .  S
C297        C298   1.420       .  A
C297       Br303   1.921       .  S
C298        C299   1.431       .  A
C299        C300   1.409       .  A
C299       Br308   1.936       .  S
C300       Br304   1.930       .  S
C309        C310   1.418       .  A
C309        C314   1.415       .  A
C310        C311   1.409       .  A
C310       Br322   1.922       .  S
C311        C312   1.405       .  A
C311       Br326   1.931       .  S
C312        C315   1.483       .  S
C312        C313   1.404       .  A
C313        C314   1.406       .  A
C313       Br321   1.932       .  S
C314       Br325   1.914       .  S
C315        C316   1.406       .  A
C315        C320   1.404       .  A
C316        C317   1.409       .  A
C316       Br327   1.932       .  S
C317        C318   1.420       .  A
C317       Br323   1.933       .  S
C318        C319   1.422       .  A
C319        C320   1.408       .  A
C319       Br328   1.934       .  S
C320       Br324   1.932       .  S
C329        C330   1.418       .  A
C329        C334   1.419       .  A
C330        C331   1.411       .  A
C330       Br342   1.933       .  S
C331        C332   1.407       .  A
C331       Br346   1.929       .  S
C332        C335   1.488       .  S
C332        C333   1.404       .  A
C333        C334   1.406       .  A
C333       Br341   1.928       .  S
C334       Br345   1.934       .  S
C335        C336   1.402       .  A
C335        C340   1.402       .  A
C336        C337   1.409       .  A
C336       Br347   1.935       .  S
C337        C338   1.420       .  A
C337       Br343   1.907       .  S
C338        C339   1.428       .  A
C339        C340   1.410       .  A
C339       Br348   1.923       .  S
C340       Br344   1.930       .  S
C349        C350   1.403       .  A
C349        C354   1.405       .  A
C350        C351   1.400       .  A
C350       Br362   1.928       .  S
C351        C352   1.410       .  A
C351       Br366   1.930       .  S
C352        C355   1.471       .  S
C352        C353   1.409       .  A
C353        C354   1.400       .  A
C353       Br361   1.930       .  S
C354       Br365   1.931       .  S
C355        C356   1.401       .  A
C355        C360   1.400       .  A
C356        C357   1.403       .  A
C356       Br367   1.939       .  S
C357        C358   1.420       .  A
C357       Br363   1.915       .  S
C358        C359   1.422       .  A
C359        C360   1.406       .  A
C359       Br368   1.917       .  S
C360       Br364   1.935       .  S
C369        C370   1.420       .  A
C369        C374   1.426       .  A
C370        C371   1.408       .  A
C370       Br382   1.916       .  S
C371        C372   1.402       .  A
C371       Br386   1.933       .  S
C372        C375   1.479       .  S
C372        C373   1.401       .  A
C373        C374   1.407       .  A
C373       Br381   1.937       .  S
C374       Br385   1.921       .  S
C375        C376   1.409       .  A
C375        C380   1.410       .  A
C376        C377   1.405       .  A
C376       Br387   1.929       .  S
C377        C378   1.406       .  A
C377       Br383   1.929   1_655  S
C378        C379   1.402       .  A
C379        C380   1.403       .  A
C379       Br388   1.924       .  S
C380       Br384   1.928       .  S
C389        C390   1.420       .  A
C389        C394   1.431       .  A
C390        C391   1.408       .  A
C390       Br402   1.911       .  S
C391        C392   1.401       .  A
C391       Br406   1.929       .  S
C392        C395   1.487       .  S
C392        C393   1.402       .  A
C393        C394   1.411       .  A
C393       Br401   1.933       .  S
C394       Br405   1.932       .  S
C395        C396   1.406       .  A
C395        C400   1.409       .  A
C396        C397   1.410       .  A
C396       Br407   1.929       .  S
C397        C398   1.418       .  A
C397       Br403   1.931       .  S
C398        C399   1.416       .  A
C399        C400   1.406       .  A
C399       Br408   1.936       .  S
C400       Br404   1.930       .  S
C409        C410   1.441       .  A
C409        C414   1.430       .  A
C410        C411   1.404       .  A
C410       Br422   1.938       .  S
C411        C412   1.396       .  A
C411       Br426   1.940       .  S
C412        C415   1.488       .  S
C412        C413   1.405       .  A
C413        C414   1.417       .  A
C413       Br421   1.931       .  S
C414       Br425   1.922       .  S
C415        C416   1.405       .  A
C415        C420   1.407       .  A
C416        C417   1.410       .  A
C416       Br427   1.927       .  S
C417        C418   1.425       .  A
C417       Br423   1.935       .  S
C418        C419   1.423       .  A
C419        C420   1.407       .  A
C419       Br428   1.936       .  S
C420       Br424   1.935       .  S
C429        C430   1.424       .  A
C429        C434   1.419       .  A
C430        C431   1.411       .  A
C430       Br442   1.913       .  S
C431        C432   1.401       .  A
C431       Br446   1.934       .  S
C432        C435   1.489       .  S
C432        C433   1.401       .  A
C433        C434   1.410       .  A
C433       Br441   1.923       .  S
C434       Br445   1.917       .  S
C435        C436   1.407       .  A
C435        C440   1.405       .  A
C436        C437   1.410       .  A
C436       Br447   1.930       .  S
C437        C438   1.420       .  A
C437       Br443   1.933       .  S
C438        C439   1.421       .  A
C439        C440   1.410       .  A
C439       Br448   1.933       .  S
C440       Br444   1.930       .  S
C449        C450   1.413       .  A
C449        C454   1.415       .  A
C450        C451   1.404       .  A
C450       Br462   1.932       .  S
C451        C452   1.406       .  A
C451       Br466   1.929       .  S
C452        C455   1.482       .  S
C452        C453   1.409       .  A
C453        C454   1.409       .  A
C453       Br461   1.931       .  S
C454       Br465   1.930       .  S
C455        C456   1.400       .  A
C455        C460   1.402       .  A
C456        C457   1.408       .  A
C456       Br467   1.936       .  S
C457        C458   1.428       .  A
C457       Br463   1.917       .  S
C458        C459   1.425       .  A
C459        C460   1.409       .  A
C459       Br468   1.922       .  S
C460       Br464   1.933       .  S
C469        C470   1.424       .  A
C469        C474   1.425       .  A
C470        C471   1.405       .  A
C470       Br482   1.919   1_554  S
C471        C472   1.400       .  A
C471       Br486   1.935       .  S
C472        C475   1.475       .  S
C472        C473   1.400       .  A
C473        C474   1.406       .  A
C473       Br481   1.936       .  S
C474       Br485   1.920       .  S
C475        C476   1.407       .  A
C475        C480   1.406       .  A
C476        C477   1.406       .  A
C476       Br487   1.928       .  S
C477        C478   1.409       .  A
C477       Br483   1.928   1_545  S
C478        C479   1.406       .  A
C479        C480   1.402       .  A
C479       Br488   1.928       .  S
C480       Br484   1.927       .  S
C489        C490   1.423       .  A
C489        C494   1.428       .  A
C490        C491   1.409       .  A
C490       Br502   1.920       .  S
C491        C492   1.402       .  A
C491       Br506   1.933       .  S
C492        C495   1.483       .  S
C492        C493   1.398       .  A
C493        C494   1.408       .  A
C493       Br501   1.935       .  S
C494       Br505   1.915       .  S
C495        C496   1.405       .  A
C495        C500   1.408       .  A
C496        C497   1.406       .  A
C496       Br507   1.932       .  S
C497        C498   1.417       .  A
C497       Br503   1.932       .  S
C498        C499   1.417       .  A
C499        C500   1.409       .  A
C499       Br508   1.935       .  S
C500       Br504   1.930       .  S
C509        C510   1.425       .  A
C509        C514   1.425       .  A
C510        C511   1.409       .  A
C510       Br522   1.934       .  S
C511        C512   1.404       .  A
C511       Br526   1.933       .  S
C512        C515   1.486       .  S
C512        C513   1.404       .  A
C513        C514   1.409       .  A
C513       Br521   1.932       .  S
C514       Br525   1.936       .  S
C515        C516   1.400       .  A
C515        C520   1.400       .  A
C516        C517   1.408       .  A
C516       Br527   1.926       .  S
C517        C518   1.423       .  A
C517       Br523   1.922       .  S
C518        C519   1.428       .  A
C519        C520   1.410       .  A
C519       Br528   1.918       .  S
C520       Br524   1.934       .  S
C529        C530   1.427       .  A
C529        C534   1.427       .  A
C530        C531   1.412       .  A
C530       Br542   1.920       .  S
C531        C532   1.402       .  A
C531       Br546   1.934       .  S
C532        C535   1.488       .  S
C532        C533   1.401       .  A
C533        C534   1.411       .  A
C533       Br541   1.936       .  S
C534       Br545   1.915   1_554  S
C535        C536   1.411       .  A
C535        C540   1.410       .  A
C536        C537   1.409       .  A
C536       Br547   1.929       .  S
C537        C538   1.409       .  A
C537       Br543   1.930       .  S
C538        C539   1.408       .  A
C539        C540   1.407       .  A
C539       Br548   1.930       .  S
C540       Br544   1.930       .  S
C549        C550   1.406       .  A
C549        C554   1.408       .  A
C550        C551   1.405       .  A
C550       Br562   1.929       .  S
C551        C552   1.409       .  A
C551       Br566   1.927       .  S
C552        C555   1.485       .  S
C552        C553   1.410       .  A
C553        C554   1.408       .  A
C553       Br561   1.925       .  S
C554       Br565   1.930   1_655  S
C555        C556   1.403       .  A
C555        C560   1.402       .  A
C556        C557   1.411       .  A
C556       Br567   1.935       .  S
C557        C558   1.425       .  A
C557       Br563   1.923       .  S
C558        C559   1.424       .  A
C559        C560   1.408       .  A
C559       Br568   1.922   1_554  S
C560       Br564   1.934       .  S
C569        C570   1.428       .  A
C569        C574   1.425       .  A
C570        C571   1.411       .  A
C570       Br582   1.915   1_556  S
C571        C572   1.401       .  A
C571       Br586   1.936       .  S
C572        C575   1.490       .  S
C572        C573   1.403       .  A
C573        C574   1.412       .  A
C573       Br581   1.933       .  S
C574       Br585   1.920       .  S
C575        C576   1.412       .  A
C575        C580   1.409       .  A
C576        C577   1.412       .  A
C576       Br587   1.929       .  S
C577        C578   1.411       .  A
C577       Br583   1.929       .  S
C578        C579   1.409       .  A
C579        C580   1.407       .  A
C579       Br588   1.929   1_455  S
C580       Br584   1.930       .  S
C589        C590   1.424       .  A
C589        C594   1.422       .  A
C590        C591   1.409       .  A
C590       Br602   1.934       .  S
C591        C592   1.404       .  A
C591       Br606   1.932       .  S
C592        C595   1.481       .  S
C592        C593   1.403       .  A
C593        C594   1.405       .  A
C593       Br601   1.929       .  S
C594       Br605   1.938       .  S
C595        C596   1.400       .  A
C595        C600   1.403       .  A
C596        C597   1.404       .  A
C596       Br607   1.930       .  S
C597        C598   1.423       .  A
C597       Br603   1.920       .  S
C598        C599   1.423       .  A
C599        C600   1.409       .  A
C599       Br608   1.920       .  S
C600       Br604   1.933       .  S
C609        C610   1.427       .  A
C609        C614   1.425       .  A
C610        C611   1.410       .  A
C610       Br622   1.920       .  S
C611        C612   1.402       .  A
C611       Br626   1.936       .  S
C612        C615   1.488       .  S
C612        C613   1.404       .  A
C613        C614   1.411       .  A
C613       Br621   1.934       .  S
C614       Br625   1.923   1_556  S
C615        C616   1.412       .  A
C615        C620   1.411       .  A
C616        C617   1.409       .  A
C616       Br627   1.929       .  S
C617        C618   1.407       .  A
C617       Br623   1.928   1_565  S
C618        C619   1.406       .  A
C619        C620   1.407       .  A
C619       Br628   1.924       .  S
C620       Br624   1.930       .  S
C629        C630   1.424       .  A
C629        C634   1.426       .  A
C630        C631   1.407       .  A
C630       Br642   1.918       .  S
C631        C632   1.400       .  A
C631       Br646   1.935       .  S
C632        C635   1.478       .  S
C632        C633   1.400       .  A
C633        C634   1.407       .  A
C633       Br641   1.935       .  S
C634       Br645   1.920   1_556  S
C635        C636   1.407       .  A
C635        C640   1.407       .  A
C636        C637   1.406       .  A
C636       Br647   1.929       .  S
C637        C638   1.410       .  A
C637       Br643   1.929       .  S
C638        C639   1.407       .  A
C639        C640   1.404       .  A
C639       Br648   1.929       .  S
C640       Br644   1.928       .  S
C649        C650   1.426       .  A
C649        C654   1.427       .  A
C650        C651   1.408       .  A
C650       Br662   1.923       .  S
C651        C652   1.400       .  A
C651       Br666   1.928       .  S
C652        C655   1.484       .  S
C652        C653   1.400       .  A
C653        C654   1.410       .  A
C653       Br661   1.934       .  S
C654       Br665   1.917       .  S
C655        C656   1.403       .  A
C655        C660   1.405       .  A
C656        C657   1.408       .  A
C656       Br667   1.934       .  S
C657        C658   1.424       .  A
C657       Br663   1.935       .  S
C658        C659   1.420       .  A
C659        C660   1.409       .  A
C659       Br668   1.935       .  S
C660       Br664   1.927       .  S
C669        C670   1.414       .  A
C669        C674   1.417       .  A
C670        C671   1.404       .  A
C670       Br682   1.933       .  S
C671        C672   1.406       .  A
C671       Br686   1.927       .  S
C672        C675   1.480       .  S
C672        C673   1.406       .  A
C673        C674   1.406       .  A
C673       Br681   1.930       .  S
C674       Br685   1.935       .  S
C675        C676   1.401       .  A
C675        C680   1.399       .  A
C676        C677   1.409       .  A
C676       Br687   1.932       .  S
C677        C678   1.425       .  A
C677       Br683   1.922       .  S
C678        C679   1.426       .  A
C679        C680   1.406       .  A
C679       Br688   1.916       .  S
C680       Br684   1.936       .  S
