geometry optimzed in LAMMPS
_audit_creation_date              2020-11-30 
_audit_creation_method            'lammps2cif' 
_symmetry_space_group_name_H-M    'P1' 
_symmetry_Int_Tables_number       1 
_symmetry_cell_setting            triclinic 
loop_ 
_symmetry_equiv_pos_as_xyz 
  x,y,z 
_cell_length_a                    34.29494138 
_cell_length_b                    34.259703616131866 
_cell_length_c                    34.012222366288334 
_cell_angle_alpha                 90.00068068127383 
_cell_angle_beta                  88.91736438819032 
_cell_angle_gamma                 91.06275468907882 
loop_ 
_atom_site_label 
_atom_site_type_symbol 
_atom_site_fract_x 
_atom_site_fract_y 
_atom_site_fract_z 
_atom_site_charge 
C1          C  0.14796304  0.72255271  0.96843589     0.81500
N2          N  0.10839040  0.72445314  0.97042109    -0.76800
C3          C  0.08923792  0.72462918  0.00562601     0.84000
N4          N  0.10952047  0.72253319  0.03914835    -0.76700
C5          C  0.14897580  0.72074852  0.03815414     0.84100
N6          N  0.16853368  0.72088498  0.00259508    -0.78500
C7          C  0.36480325  0.60642543  0.03309180     0.81500
N8          N  0.37890987  0.56984364  0.03233455    -0.76800
C9          C  0.38698978  0.55184299  0.99770132     0.84000
N10         N  0.38052556  0.57084619  0.96344096    -0.76700
C11         C  0.36651379  0.60759314  0.96369696     0.84100
N12         N  0.35832558  0.62546280  0.99866847    -0.78500
C13         C  0.90897697  0.23388305  0.03001710     0.81500
N14         N  0.94848132  0.23428578  0.02984571    -0.76800
C15         C  0.96909584  0.23608346  0.99568345     0.84000
N16         N  0.95022064  0.23777068  0.96112307    -0.76700
C17         C  0.91058550  0.23706116  0.96055866     0.84100
N18         N  0.88975902  0.23501757  0.99520525    -0.78500
C19         C  0.67701383  0.33720152  0.96227871     0.81500
N20         N  0.67083995  0.37637615  0.96209517    -0.76800
C21         C  0.66604630  0.39606869  0.99665189     0.84000
N22         N  0.66815104  0.37619035  0.03105166    -0.76700
C23         C  0.67454272  0.33738751  0.03136632     0.84100
N24         N  0.67947264  0.31793308  0.99698426    -0.78500
C25         C  0.80158719  0.94030537  0.11876164     0.81500
N26         N  0.79730582  0.94617862  0.07967804    -0.76800
C27         C  0.79389472  0.98283277  0.06531936     0.84000
N28         N  0.79414188  0.01380350  0.09028876    -0.76700
C29         C  0.79827991  0.00821173  0.12968500     0.84100
N30         N  0.80213802  0.97142603  0.14365166    -0.78500
C31         C  0.67550843  0.01555839  0.34715753     0.81500
N32         N  0.63652804  0.01378111  0.35363747    -0.76800
C33         C  0.61744630  0.97883321  0.35628122     0.84000
N34         N  0.63801159  0.94541410  0.35177903    -0.76700
C35         C  0.67727403  0.94727611  0.34541724     0.84100
N36         N  0.69583657  0.98238098  0.34252026    -0.78500
C37         C  0.27258449  0.01203301  0.88581136     0.81500
N38         N  0.27559985  0.00564926  0.92509366    -0.76800
C39         C  0.27400781  0.96864596  0.93962380     0.84000
N40         N  0.26988149  0.93792913  0.91462412    -0.76700
C41         C  0.26693391  0.94417846  0.87519282     0.84100
N42         N  0.26814227  0.98116453  0.86116758    -0.78500
C43         C  0.39706767  0.94612290  0.66371165     0.81500
N44         N  0.37845142  0.98055502  0.66630556    -0.76800
C45         C  0.39784652  0.01423007  0.65721115     0.84000
N46         N  0.43597453  0.01363400  0.64636963    -0.76700
C47         C  0.45495331  0.97929471  0.64382210     0.84100
N48         N  0.43531853  0.94546776  0.65278039    -0.78500
C49         C  0.90853155  0.74171978  0.03448799     0.81500
N50         N  0.94768840  0.73698655  0.03828591    -0.76800
C51         C  0.97118301  0.73513468  0.00571236     0.84000
N52         N  0.95565840  0.73767278  0.96956673    -0.76700
C53         C  0.91685159  0.74239168  0.96558695     0.84100
N54         N  0.89335966  0.74450091  0.99809095    -0.78500
C55         C  0.70421408  0.61821937  0.04329289     0.81500
N56         N  0.70924781  0.63970814  0.01009482    -0.76800
C57         C  0.70223611  0.62345065  0.97456184     0.84000
N58         N  0.69070147  0.58545996  0.97208067    -0.76700
C59         C  0.68552633  0.56358371  0.00517812     0.84100
N60         N  0.69257112  0.58019128  0.04084217    -0.78500
C61         C  0.14633263  0.22301538  0.96280038     0.81500
N62         N  0.10712443  0.22681836  0.96372259    -0.76800
C63         C  0.08719023  0.22776699  0.99825208     0.84000
N64         N  0.10651042  0.22523211  0.03250411    -0.76700
C65         C  0.14592281  0.22143128  0.03243285     0.84100
N66         N  0.16605564  0.22026765  0.99731464    -0.78500
C67         C  0.38667153  0.32818994  0.96562102     0.81500
N68         N  0.39638371  0.36667910  0.96460204    -0.76800
C69         C  0.40440014  0.38618796  0.99836565     0.84000
N70         N  0.40185284  0.36676824  0.03319045    -0.76700
C71         C  0.39216865  0.32826145  0.03411182     0.84100
N72         N  0.38395223  0.30915309  0.00039747    -0.78500
C73         C  0.78036611  0.95221746  0.88748379     0.81500
N74         N  0.78086760  0.98626230  0.86613661    -0.76800
C75         C  0.78223210  0.02155088  0.88523921     0.84000
N76         N  0.78343660  0.02226508  0.92517652    -0.76700
C77         C  0.78341192  0.98872111  0.94620296     0.84100
N78         N  0.78160642  0.95396646  0.92734572    -0.78500
C79         C  0.68069268  0.01354061  0.65201245     0.81500
N80         N  0.69841779  0.97909808  0.65913159    -0.76800
C81         C  0.67816576  0.94484825  0.65501893     0.84000
N82         N  0.64024768  0.94523774  0.64477359    -0.76700
C83         C  0.62223256  0.97945523  0.63797901     0.84100
N84         N  0.64263618  0.01358167  0.64187928    -0.78500
C85         C  0.27648250  0.01042389  0.11275696     0.81500
N86         N  0.27815306  0.00375913  0.07349568    -0.76800
C87         C  0.27648917  0.96678545  0.05929054     0.84000
N88         N  0.27363899  0.93602549  0.08471053    -0.76700
C89         C  0.27211220  0.94250119  0.12437535     0.84100
N90         N  0.27326589  0.97970876  0.13800268    -0.78500
C91         C  0.39278017  0.94228622  0.33032619     0.81500
N92         N  0.37300156  0.97606538  0.32733531    -0.76800
C93         C  0.39146482  0.01070976  0.33437111     0.84000
N94         N  0.42987570  0.01144175  0.34361379    -0.76700
C95         C  0.44973716  0.97752079  0.34650332     0.84100
N96         N  0.43088250  0.94315752  0.33964110    -0.78500
C97         C  0.99019657  0.09883583  0.76532654     0.81500
N98         N  0.99430554  0.05938507  0.76585159    -0.76800
C99         C  0.03018250  0.04340323  0.76874259     0.84000
N100        N  0.06245266  0.06739879  0.77047413    -0.76700
C101        C  0.05868504  0.10715205  0.76990685     0.84100
N102        N  0.02247034  0.12240327  0.76758320    -0.78500
C103        C  0.00413278  0.31455068  0.64158506     0.81500
N104        N  0.03850102  0.30839466  0.65960783    -0.76800
C105        C  0.07228585  0.30759885  0.63806959     0.84000
N106        N  0.07144999  0.31228772  0.59836880    -0.76700
C107        C  0.03700995  0.31822529  0.58011257     0.84100
N108        N  0.00353265  0.31915728  0.60205236    -0.78500
C109        C  0.07757142  0.86706202  0.77112063     0.81500
N110        N  0.07383385  0.90652650  0.76962746    -0.76800
C111        C  0.03791847  0.92282028  0.77092319     0.84000
N112        N  0.00539542  0.89909633  0.77306906    -0.76700
C113        C  0.00902294  0.85936950  0.77457659     0.84100
N114        N  0.04510653  0.84389043  0.77383157    -0.78500
C115        C  0.00205938  0.63896944  0.64821641     0.81500
N116        N  0.03628850  0.64151905  0.66720897    -0.76800
C117        C  0.06955404  0.63020296  0.64889514     0.84000
N118        N  0.06891370  0.61750617  0.61127417    -0.76700
C119        C  0.03473664  0.61497974  0.59195048     0.84100
N120        N  0.00126233  0.62601308  0.61057343    -0.78500
C121        C  0.07481112  0.86952210  0.24601838     0.81500
N122        N  0.03997396  0.84928225  0.24974362    -0.76800
C123        C  0.00553741  0.86907907  0.25143764     0.84000
N124        N  0.00631002  0.90860579  0.24905664    -0.76700
C125        C  0.04034811  0.92886160  0.24499605     0.84100
N126        N  0.07454109  0.90934234  0.24377502    -0.78500
C127        C  0.06353664  0.63452315  0.36528955     0.81500
N128        N  0.06566408  0.62180545  0.40297506    -0.76800
C129        C  0.03249305  0.61406160  0.42434001     0.84000
N130        N  0.99739961  0.61981244  0.40779484    -0.76700
C131        C  0.99517181  0.63268706  0.37040931     0.84100
N132        N  0.02825828  0.64051384  0.34917077    -0.78500
C133        C  0.98604432  0.10068835  0.23046123     0.81500
N134        N  0.99183524  0.06166585  0.23465743    -0.76800
C135        C  0.02863661  0.04747291  0.23475364     0.84000
N136        N  0.05961792  0.07250677  0.23114692    -0.76700
C137        C  0.05425418  0.11159998  0.22708012     0.84100
N138        N  0.01742080  0.12545826  0.22666079    -0.78500
C139        C  0.06202883  0.31183975  0.34883427     0.81500
N140        N  0.06280382  0.31595668  0.38834779    -0.76800
C141        C  0.02925525  0.31909035  0.40978999     0.84000
N142        N  0.99446098  0.31767603  0.39097030    -0.76700
C143        C  0.99358845  0.31358874  0.35114145     0.84100
N144        N  0.02744174  0.31027152  0.33020334    -0.78500
C145        C  0.29285567  0.50378151  0.37540596     0.81500
N146        N  0.29101566  0.46708650  0.36065600    -0.76800
C147        C  0.28963881  0.43552759  0.38479539     0.84000
N148        N  0.29057731  0.44093711  0.42444353    -0.76700
C149        C  0.29296136  0.47762948  0.43980786     0.84100
N150        N  0.29385933  0.50908165  0.41519540    -0.78500
C151        C  0.17114226  0.43698536  0.15699095     0.81500
N152        N  0.18993349  0.47149912  0.16375895    -0.76800
C153        C  0.17044064  0.50542736  0.16091365     0.84000
N154        N  0.13221828  0.50477280  0.15200385    -0.76700
C155        C  0.11298249  0.47048613  0.14549960     0.84100
N156        N  0.13256756  0.43642520  0.14837940    -0.78500
O157        O  0.25963725  0.73475462  0.12493219    -0.85200
O158        O  0.19172548  0.67985086  0.33236494    -0.85400
O159        O  0.19921126  0.63805733  0.20037599    -0.87000
O160        O  0.15941492  0.75620067  0.22814725    -0.85800
O161        O  0.18840638  0.81206621  0.25204852    -0.85400
O162        O  0.25510360  0.60361226  0.21068498    -0.86700
O163        O  0.16216683  0.67983958  0.27217914    -0.85200
O164        O  0.20110379  0.71394466  0.15219389    -0.84800
Zr165      Zr  0.20919183  0.70521394  0.22347972     2.84300
O166        O  0.22218644  0.74118395  0.28061548    -1.06800
O167        O  0.26868083  0.68715240  0.19477841    -1.07500
C168        C  0.22341282  0.72425117  0.12255946     1.07900
C169        C  0.16262446  0.67348965  0.30958059     1.07900
C170        C  0.21984746  0.60684359  0.19893152     1.10800
C171        C  0.15835215  0.79223804  0.23974516     1.08600
H172        H  0.22971960  0.64380191  0.27473887     0.34200
O173        O  0.24461308  0.66698352  0.26744102    -1.27700
H174        H  0.23109501  0.77667832  0.18809009     0.33900
O175        O  0.24571366  0.76133120  0.20627027    -1.29400
O176        O  0.30659548  0.71060474  0.37655422    -0.85200
O177        O  0.37457933  0.76431466  0.17061967    -0.86700
O178        O  0.29540279  0.60338347  0.29486048    -0.85300
O179        O  0.23342892  0.81159640  0.33037647    -0.85300
O180        O  0.26624762  0.84307609  0.20670688    -0.85000
O181        O  0.32732946  0.63459475  0.16994439    -0.84800
O182        O  0.40179474  0.68488213  0.27497395    -0.85200
O183        O  0.36410902  0.80796713  0.29681513    -0.84700
O184        O  0.36977909  0.63057314  0.25111707    -0.85700
O185        O  0.30745664  0.84184632  0.28762216    -0.84900
O186        O  0.26944643  0.63812918  0.34647707    -0.85300
O187        O  0.33015992  0.69234189  0.13548366    -0.85000
O188        O  0.29619170  0.80918003  0.15670462    -0.84700
O189        O  0.23304049  0.75446621  0.36585800    -0.85100
O190        O  0.36492069  0.73088393  0.34869132    -0.85400
O191        O  0.40367337  0.76173307  0.23086883    -0.86700
Zr192      Zr  0.25873267  0.70369093  0.32388131     2.83100
Zr193      Zr  0.30583271  0.74284576  0.17817929     2.83500
Zr194      Zr  0.30337107  0.64796566  0.23768251     2.84100
Zr195      Zr  0.25789213  0.79755576  0.26318135     2.83400
Zr196      Zr  0.35435409  0.73929483  0.27795078     2.84200
O197        O  0.31816115  0.77844983  0.23513132    -1.07300
O198        O  0.31730788  0.68364589  0.29473658    -1.06800
C199        C  0.34309481  0.72057915  0.37858770     1.07900
C200        C  0.40407171  0.76835647  0.19361881     1.10500
C201        C  0.28319853  0.60686366  0.33109812     1.08100
C202        C  0.22737335  0.79127960  0.36215443     1.08400
C203        C  0.28082615  0.84010228  0.17127771     1.08000
C204        C  0.33423242  0.65527810  0.13850877     1.07600
C205        C  0.40028394  0.64841704  0.26414491     1.08000
C206        C  0.34330547  0.83914919  0.29771190     1.07500
H207        H  0.36482714  0.69578774  0.20790526     0.34200
O208        O  0.34089058  0.70357812  0.22081405    -1.28400
H209        H  0.30053006  0.77426387  0.32963611     0.34200
O210        O  0.29491464  0.75938243  0.30623658    -1.29800
C211        C  0.41261216  0.23791046  0.45648820     0.81500
N212        N  0.38827077  0.24218436  0.48811904    -0.76800
C213        C  0.40258693  0.24495742  0.52486417     0.84000
N214        N  0.44187006  0.24333218  0.52998899    -0.76700
C215        C  0.46639565  0.23910557  0.49848444     0.84100
N216        N  0.45168367  0.23628305  0.46180686    -0.78500
C217        C  0.18678712  0.12201013  0.46517176     0.81500
N218        N  0.19471489  0.14154359  0.49881504    -0.76800
C219        C  0.19110267  0.12290813  0.53385783     0.84000
N220        N  0.18059917  0.08462184  0.53513269    -0.76700
C221        C  0.17288300  0.06483966  0.50147006     0.84100
N222        N  0.17634869  0.08373380  0.46647266    -0.78500
O223        O  0.26488526  0.10131488  0.77714364    -0.85200
O224        O  0.33696560  0.30211248  0.83965559    -0.85400
O225        O  0.36819931  0.16815188  0.83069392    -0.87000
O226        O  0.25619132  0.20206996  0.87503035    -0.85800
O227        O  0.20151098  0.22798627  0.84801883    -0.85400
O228        O  0.40259077  0.17673034  0.77263156    -0.86700
O229        O  0.33367297  0.24138205  0.86851610    -0.85200
O230        O  0.28790006  0.12693070  0.83480627    -0.84800
Zr231      Zr  0.30404495  0.19567758  0.82252187     2.84300
O232        O  0.27176548  0.25388032  0.81018326    -1.06800
O233        O  0.31971227  0.16559220  0.76281912    -1.07500
C234        C  0.27445998  0.09859984  0.81357839     1.07900
C235        C  0.34236398  0.27817704  0.86814637     1.07900
C236        C  0.39888944  0.16508199  0.80855033     1.10800
C237        C  0.22118264  0.21482826  0.87733196     1.08600
H238        H  0.36882472  0.24289358  0.80000710     0.34200
O239        O  0.34507585  0.23779708  0.78597074    -1.27700
H240        H  0.22973883  0.16494676  0.80481362     0.33900
O241        O  0.24629383  0.18212050  0.78904337    -1.29400
O242        O  0.31072239  0.34851198  0.72478528    -0.85200
O243        O  0.23605386  0.14886373  0.66252375    -0.86700
O244        O  0.41166864  0.25756506  0.73581900    -0.85300
O245        O  0.20458111  0.30550671  0.80371131    -0.85300
O246        O  0.16410844  0.18553246  0.77207438    -0.85000
O247        O  0.36936294  0.14425521  0.69662745    -0.84800
O248        O  0.32550769  0.25190417  0.62975883    -0.85200
O249        O  0.20469040  0.27593372  0.67032239    -0.84700
O250        O  0.37884908  0.22729687  0.66050274    -0.85700
O251        O  0.16977326  0.26634633  0.72814741    -0.84900
O252        O  0.38355275  0.31174529  0.76305962    -0.85300
O253        O  0.31027322  0.11135912  0.69832095    -0.85000
O254        O  0.19478898  0.13426342  0.74190722    -0.84700
O255        O  0.26393419  0.33821728  0.80287889    -0.85100
O256        O  0.28555069  0.32340738  0.66784638    -0.85400
O257        O  0.24340007  0.20860756  0.63213001    -0.86700
Zr258      Zr  0.31311040  0.29613731  0.77329174     2.83100
Zr259      Zr  0.26223740  0.15351398  0.72851977     2.83500
Zr260      Zr  0.36023811  0.20817492  0.72626905     2.84100
Zr261      Zr  0.21352999  0.23989734  0.77719064     2.83400
Zr262      Zr  0.27161215  0.25387500  0.67914380     2.84200
O263        O  0.23043680  0.21182628  0.71659237    -1.07300
O264        O  0.32902152  0.26687763  0.71337270    -1.06800
C265        C  0.29978740  0.35160865  0.68879795     1.07900
C266        C  0.23262199  0.17237258  0.63320296     1.10500
C267        C  0.41337518  0.29278078  0.74941069     1.08100
C268        C  0.22685368  0.33560672  0.81009276     1.08400
C269        C  0.16475619  0.15002918  0.75829154     1.08000
C270        C  0.34702519  0.11433534  0.69013166     1.07600
C271        C  0.36180289  0.24177935  0.63068547     1.08000
C272        C  0.17311329  0.27688757  0.69170076     1.07500
H273        H  0.30985315  0.18297587  0.66620199     0.34200
O274        O  0.30333117  0.19516472  0.69102065    -1.28400
H275        H  0.24172098  0.30631920  0.73469169     0.34200
O276        O  0.25506079  0.28230188  0.73974293    -1.29800
C277        C  0.41890322  0.72502407  0.46287066     0.81500
N278        N  0.39894035  0.72759080  0.49807644    -0.76800
C279        C  0.41899792  0.72865074  0.53258335     0.84000
N280        N  0.45853655  0.72684499  0.53144830    -0.76700
C281        C  0.47836376  0.72395395  0.49681528     0.84100
N282        N  0.45854770  0.72330028  0.46269663    -0.78500
C283        C  0.19625120  0.84163146  0.53583007     0.81500
N284        N  0.18391526  0.87890720  0.53609559    -0.76800
C285        C  0.17775965  0.89810589  0.50194466     0.84000
N286        N  0.18438675  0.87965281  0.46720492    -0.76700
C287        C  0.19676957  0.84235069  0.46646501     0.84100
N288        N  0.20310684  0.82326415  0.50088364    -0.78500
C289        C  0.30263317  0.50648905  0.62442904     0.81500
N290        N  0.30068418  0.51136334  0.58456849    -0.76800
C291        C  0.29947512  0.47957180  0.56034231     0.84000
N292        N  0.29967439  0.44312661  0.57614285    -0.76700
C293        C  0.30151006  0.43803487  0.61568722     0.84100
N294        N  0.30314996  0.46982198  0.63953731    -0.78500
C295        C  0.17358395  0.43632024  0.84071772     0.81500
N296        N  0.13475277  0.43674556  0.84930179    -0.76800
C297        C  0.11591408  0.47124882  0.85230227     0.84000
N298        N  0.13625010  0.50514865  0.84598944    -0.76700
C299        C  0.17488034  0.50483405  0.83711450     0.84100
N300        N  0.19353519  0.47036781  0.83412688    -0.78500
O301        O  0.25836398  0.73707368  0.87684554    -0.85200
O302        O  0.19761135  0.67569511  0.67269435    -0.85400
O303        O  0.16224436  0.75585962  0.77881137    -0.87000
O304        O  0.20488487  0.63729481  0.80124446    -0.85800
O305        O  0.26232363  0.60545410  0.78834230    -0.85400
O306        O  0.18904607  0.81290029  0.75380602    -0.86700
O307        O  0.16781861  0.67547627  0.73386880    -0.85200
O308        O  0.20107205  0.71391865  0.85127203    -0.84800
Zr309      Zr  0.21226101  0.70535767  0.77983664     2.84300
O310        O  0.25000812  0.66933871  0.73471914    -1.06800
O311        O  0.24559092  0.76327572  0.79478675    -1.07500
C312        C  0.22244735  0.72541243  0.88032528     1.07900
C313        C  0.16922577  0.66766973  0.69686604     1.07900
C314        C  0.16041022  0.79216198  0.76839540     1.10800
C315        C  0.22662848  0.60684019  0.80093590     1.08600
H316        H  0.19913780  0.74787904  0.70998499     0.34200
O317        O  0.22361229  0.74208550  0.72207100    -1.27700
H318        H  0.26677047  0.67359470  0.83013555     0.33900
O319        O  0.27183210  0.68862835  0.80652531    -1.29400
O320        O  0.30802042  0.71603822  0.62302719    -0.85200
O321        O  0.37050118  0.77254676  0.82916849    -0.86700
O322        O  0.23246579  0.81248321  0.67069748    -0.85300
O323        O  0.30352121  0.60699191  0.70511463    -0.85300
O324        O  0.33409121  0.63957867  0.82828825    -0.85000
O325        O  0.26224659  0.84516303  0.79417897    -0.84800
O326        O  0.36308419  0.81567124  0.69942636    -0.85200
O327        O  0.40476181  0.70053287  0.72042769    -0.84700
O328        O  0.30545962  0.84749036  0.71087188    -0.85700
O329        O  0.37934810  0.64357897  0.74694049    -0.84900
O330        O  0.23318698  0.75471685  0.63628627    -0.85300
O331        O  0.29005402  0.81123144  0.84438657    -0.85000
O332        O  0.33245976  0.69679298  0.86357735    -0.84700
O333        O  0.27610708  0.64078807  0.65463623    -0.85100
O334        O  0.36478154  0.74041038  0.64874177    -0.85400
O335        O  0.40022622  0.77412754  0.76801365    -0.86700
Zr336      Zr  0.26179754  0.70599161  0.67765916     2.83100
Zr337      Zr  0.30487290  0.74631513  0.82212391     2.83500
Zr338      Zr  0.25715651  0.80043571  0.73741901     2.84100
Zr339      Zr  0.30984715  0.65258409  0.76160000     2.83400
Zr340      Zr  0.35396790  0.74845335  0.72031948     2.84200
O341        O  0.34292168  0.71085906  0.77734668    -1.07300
O342        O  0.29460994  0.76428172  0.69256852    -1.06800
C343        C  0.34371662  0.72833151  0.61967415     1.07900
C344        C  0.39944015  0.78001456  0.80551926     1.10500
C345        C  0.22675871  0.79144711  0.63952069     1.08100
C346        C  0.29097529  0.60993159  0.66938187     1.08400
C347        C  0.33906526  0.66009298  0.85994105     1.08000
C348        C  0.27480269  0.84187710  0.82979588     1.07600
C349        C  0.34153408  0.84605853  0.69928150     1.08000
C350        C  0.40757944  0.66506092  0.73235863     1.07500
H351        H  0.33043323  0.80805322  0.77278533     0.34200
O352        O  0.31661543  0.78435025  0.76563778    -1.28400
H353        H  0.33718438  0.67568427  0.68597779     0.34200
O354        O  0.32152067  0.69006986  0.70466072    -1.29800
C355        C  0.77452079  0.44055185  0.38349845     0.81500
N356        N  0.77110682  0.47205240  0.35959395    -0.76800
C357        C  0.77158155  0.50867964  0.37458651     0.84000
N358        N  0.77558929  0.51377645  0.41409863    -0.76700
C359        C  0.77908626  0.48236996  0.43813940     0.84100
N360        N  0.77867675  0.44585017  0.42273339    -0.78500
C361        C  0.89138104  0.51537726  0.16554318     0.81500
N362        N  0.86825873  0.48295234  0.16536983    -0.76800
C363        C  0.88346877  0.44804887  0.15548616     0.84000
N364        N  0.92208857  0.44531142  0.14680743    -0.76700
C365        C  0.94548830  0.47775819  0.14683290     0.84100
N366        N  0.92990552  0.51279510  0.15647139    -0.78500
C367        C  0.57411976  0.60053418  0.26317607     0.81500
N368        N  0.56822903  0.56135702  0.26219683    -0.76800
C369        C  0.53162885  0.54587811  0.26360913     0.84000
N370        N  0.50040845  0.56984894  0.26576583    -0.76700
C371        C  0.50591252  0.60944750  0.26671899     0.84100
N372        N  0.54288946  0.62450678  0.26545343    -0.78500
C373        C  0.57677830  0.80761845  0.13965222     0.81500
N374        N  0.54339265  0.79844295  0.16025990    -0.76800
C375        C  0.50821143  0.80156376  0.14273130     0.84000
N376        N  0.50660595  0.81321122  0.10482298    -0.76700
C377        C  0.53967162  0.82214803  0.08400935     0.84100
N378        N  0.57477619  0.81913494  0.10159345    -0.78500
O379        O  0.81926968  0.85330944  0.22601175    -0.85200
O380        O  0.73895143  0.64967925  0.17682397    -0.85400
O381        O  0.83278193  0.74782918  0.13788655    -0.87000
O382        O  0.71224455  0.78005110  0.17031891    -0.85800
O383        O  0.67678682  0.77916095  0.22829575    -0.85400
O384        O  0.88298475  0.72107867  0.17184780    -0.86700
O385        O  0.75015222  0.70618040  0.14124184    -0.85200
O386        O  0.79455985  0.82511095  0.17012602    -0.84800
Zr387      Zr  0.77785248  0.75627898  0.18445961     2.84300
O388        O  0.73434400  0.71901352  0.22381967    -1.06800
O389        O  0.83432305  0.76961181  0.22035089    -1.07500
C390        C  0.80876665  0.85430837  0.18990279     1.07900
C391        C  0.73826108  0.67028931  0.14504759     1.07900
C392        C  0.86785116  0.73466599  0.14045989     1.10800
C393        C  0.68062117  0.78494764  0.19101567     1.08600
H394        H  0.81208597  0.68239123  0.18041646     0.34200
O395        O  0.80524508  0.69706811  0.20371539    -1.27700
H396        H  0.75002556  0.81626877  0.23395359     0.33900
O397        O  0.76220524  0.79214652  0.24110614    -1.29400
O398        O  0.76378929  0.61229849  0.29855115    -0.85200
O399        O  0.84148795  0.81521361  0.34379439    -0.86700
O400        O  0.86854125  0.64434591  0.21492836    -0.85300
O401        O  0.66566655  0.70725222  0.27419233    -0.85300
O402        O  0.71085035  0.82095198  0.30392443    -0.85000
O403        O  0.91542936  0.75773688  0.24444661    -0.84800
O404        O  0.86488560  0.68072870  0.34692012    -0.85200
O405        O  0.74469368  0.71731481  0.38054157    -0.84700
O406        O  0.90028542  0.68091468  0.28881028    -0.85700
O407        O  0.69509336  0.74420592  0.34581510    -0.84900
O408        O  0.80845646  0.61349989  0.21799412    -0.85300
O409        O  0.88983875  0.81548071  0.26600887    -0.85000
O410        O  0.77136872  0.85100067  0.30387853    -0.84700
O411        O  0.69128962  0.64903730  0.25392278    -0.85100
O412        O  0.78560886  0.64463291  0.35337014    -0.85400
O413        O  0.82965485  0.75888579  0.37920721    -0.86700
Zr414      Zr  0.76160568  0.65998999  0.24371071     2.83100
Zr415      Zr  0.81890591  0.80480273  0.27736781     2.83500
Zr416      Zr  0.86150046  0.71069183  0.23917063     2.84100
Zr417      Zr  0.71830303  0.75505932  0.27954269     2.83400
Zr418      Zr  0.80156088  0.71072409  0.33517770     2.84200
O419        O  0.77371616  0.76937303  0.31645513    -1.07300
O420        O  0.81789287  0.67438385  0.27901010    -1.06800
C421        C  0.77317775  0.61401489  0.33539672     1.07900
C422        C  0.84219615  0.79439144  0.37529926     1.10500
C423        C  0.84534637  0.61481661  0.20985569     1.08100
C424        C  0.66263227  0.67095490  0.26468901     1.08400
C425        C  0.73409585  0.85005612  0.31047340     1.08000
C426        C  0.91869202  0.79398515  0.25438483     1.07600
C427        C  0.89546790  0.67320337  0.32555710     1.08000
C428        C  0.70932376  0.72972965  0.37714533     1.07500
H429        H  0.87024485  0.75123853  0.31048858     0.34200
O430        O  0.84669512  0.74615679  0.29606164    -1.28400
H431        H  0.72707678  0.68141131  0.31538513     0.34200
O432        O  0.74547758  0.69639520  0.29940561    -1.29800
C433        C  0.65009491  0.71432256  0.54731405     0.81500
N434        N  0.61113764  0.71705647  0.54164233    -0.76800
C435        C  0.59703592  0.71750894  0.50456016     0.84000
N436        N  0.62216124  0.71602503  0.47312070    -0.76700
C437        C  0.66129090  0.71340576  0.47887208     0.84100
N438        N  0.67480067  0.71235620  0.51585378    -0.78500
C439        C  0.88265511  0.84876700  0.54164679     0.81500
N440        N  0.87715716  0.82924642  0.50764125    -0.76800
C441        C  0.88076978  0.84819530  0.47296239     0.84000
N442        N  0.88917712  0.88689391  0.47214113    -0.76700
C443        C  0.89460415  0.90700871  0.50606301     0.84100
N444        N  0.89083608  0.88778815  0.54108253    -0.78500
C445        C  0.56386024  0.61075610  0.74116358     0.81500
N446        N  0.52690661  0.62426392  0.73963209    -0.76800
C447        C  0.49572052  0.59920995  0.74259954     0.84000
N448        N  0.50154167  0.56054387  0.74693566    -0.76700
C449        C  0.53806446  0.54644214  0.74799003     0.84100
N450        N  0.56940772  0.57150303  0.74527190    -0.78500
C451        C  0.49806288  0.81883289  0.85782882     0.81500
N452        N  0.49800702  0.82646806  0.89704582    -0.76800
C453        C  0.53230120  0.83269079  0.91577323     0.84000
N454        N  0.56627484  0.83054220  0.89497932    -0.76700
C455        C  0.56631295  0.82283305  0.85607811     0.84100
N456        N  0.53226684  0.81643407  0.83748573    -0.78500
C457        C  0.78758386  0.45247598  0.61689834     0.81500
N458        N  0.78773324  0.45376983  0.57698066    -0.76800
C459        C  0.78703481  0.48827257  0.55767184     0.84000
N460        N  0.78703649  0.52203960  0.57832751    -0.76700
C461        C  0.78724039  0.52179370  0.61830717     0.84100
N462        N  0.78721997  0.48672375  0.63787664    -0.78500
C463        C  0.89447842  0.52071228  0.83978490     0.81500
N464        N  0.87166948  0.48853404  0.83320243    -0.76800
C465        C  0.88724339  0.45237301  0.83542922     0.84000
N466        N  0.92560370  0.44858201  0.84342323    -0.76700
C467        C  0.94850483  0.48063918  0.84991937     0.84100
N468        N  0.93266731  0.51660594  0.84789866    -0.78500
O469        O  0.81132960  0.76149660  0.87751088    -0.85200
O470        O  0.87451470  0.68434405  0.67642146    -0.85400
O471        O  0.87095290  0.65750219  0.80845241    -0.87000
O472        O  0.90680840  0.77924924  0.77631331    -0.85800
O473        O  0.87456359  0.82949718  0.74733879    -0.85400
O474        O  0.81289476  0.62284396  0.80692625    -0.86700
O475        O  0.90610943  0.69595034  0.73453458    -0.85200
O476        O  0.86791906  0.73607261  0.85176971    -0.84800
Zr477      Zr  0.85970694  0.72334183  0.78197310     2.84300
O478        O  0.84486486  0.75114984  0.72138725    -1.06800
O479        O  0.80052329  0.70809161  0.81461256    -1.07500
C480        C  0.84660523  0.74958728  0.88025862     1.07900
C481        C  0.90449606  0.68365788  0.69867236     1.07900
C482        C  0.84947985  0.62638154  0.81412550     1.10800
C483        C  0.90486332  0.81476826  0.76299543     1.08600
H484        H  0.83722223  0.65565518  0.73971909     0.34200
O485        O  0.82273482  0.67915775  0.74434383    -1.27700
H486        H  0.83808753  0.79825718  0.80954631     0.33900
O487        O  0.82345065  0.77995118  0.79372557    -1.29400
O488        O  0.75852865  0.70549422  0.63337798    -0.85200
O489        O  0.69729192  0.78734348  0.83083907    -0.86700
O490        O  0.77214320  0.60956152  0.73093376    -0.85300
O491        O  0.83847627  0.81489381  0.66886777    -0.85300
O492        O  0.79837112  0.86128892  0.77892697    -0.85000
O493        O  0.73949978  0.65702330  0.84486955    -0.84800
O494        O  0.66609778  0.69174670  0.73490891    -0.85200
O495        O  0.70384427  0.81257185  0.69903007    -0.84700
O496        O  0.69829027  0.64180271  0.76449334    -0.85700
O497        O  0.76136009  0.84795362  0.70227347    -0.84900
O498        O  0.79747288  0.63585339  0.67368669    -0.85300
O499        O  0.73772159  0.71777107  0.87354833    -0.85000
O500        O  0.77283338  0.83547688  0.83620233    -0.84700
O501        O  0.83738161  0.75506095  0.63817938    -0.85100
O502        O  0.70147008  0.72912637  0.65972862    -0.85400
O503        O  0.66692490  0.77617917  0.77202960    -0.86700
Zr504      Zr  0.80809879  0.70677908  0.68373983     2.83100
Zr505      Zr  0.76402387  0.76449916  0.82558205     2.83500
Zr506      Zr  0.76432360  0.66342153  0.77759038     2.84100
Zr507      Zr  0.80874741  0.80736460  0.73319519     2.83400
Zr508      Zr  0.71357442  0.74712651  0.72733263     2.84200
O509        O  0.74973443  0.79181036  0.76498070    -1.07300
O510        O  0.74968805  0.69067417  0.71686403    -1.06800
C511        C  0.72228238  0.71475209  0.63145385     1.07900
C512        C  0.66795362  0.78857614  0.80769490     1.10500
C513        C  0.78445926  0.60671046  0.69491978     1.08100
C514        C  0.84551139  0.79206306  0.63973919     1.08400
C515        C  0.78529335  0.86452586  0.81457993     1.08000
C516        C  0.73254771  0.68037708  0.87379270     1.07600
C517        C  0.66793786  0.65651952  0.74896057     1.08000
C518        C  0.72521513  0.84379481  0.69350220     1.07500
H519        H  0.70345130  0.71269044  0.80227220     0.34200
O520        O  0.72747170  0.71949831  0.78844767    -1.28400
H521        H  0.76697351  0.77566595  0.66946500     0.34200
O522        O  0.77238088  0.76363347  0.69442063    -1.29800
C523        C  0.49164313  0.36691356  0.25686365     0.81500
N524        N  0.49235523  0.40646819  0.25868070    -0.76800
C525        C  0.52652523  0.42668718  0.25965094     0.84000
N526        N  0.56065521  0.40726842  0.25824741    -0.76700
C527        C  0.56091760  0.36754478  0.25676744     0.84100
N528        N  0.52612144  0.34717294  0.25609750    -0.78500
C529        C  0.56365491  0.12357372  0.14294051     0.81500
N530        N  0.52878846  0.12928809  0.16109962    -0.76800
C531        C  0.49543150  0.12470989  0.14090076     0.84000
N532        N  0.49696780  0.11534152  0.10219773    -0.76700
C533        C  0.53187646  0.10985103  0.08353664     0.84100
N534        N  0.56528365  0.11442995  0.10411550    -0.78500
O535        O  0.79691727  0.21682780  0.11801667    -0.85200
O536        O  0.86145314  0.28401723  0.32080995    -0.85400
O537        O  0.84894253  0.32012063  0.18816037    -0.87000
O538        O  0.89552924  0.20597370  0.21507807    -0.85800
O539        O  0.87093498  0.14974472  0.24363418    -0.85400
O540        O  0.78913639  0.34915134  0.19502694    -0.86700
O541        O  0.89130530  0.28102997  0.25985486    -0.85200
O542        O  0.85340239  0.24287852  0.14295714    -0.84800
Zr543      Zr  0.84372915  0.25404278  0.21355200     2.84300
O544        O  0.83359347  0.22056795  0.27272755    -1.06800
O545        O  0.78332360  0.26609210  0.18509764    -1.07500
C546        C  0.83237045  0.22979568  0.11440636     1.07900
C547        C  0.89098739  0.28854213  0.29714893     1.07900
C548        C  0.82551713  0.34882556  0.18448301     1.10800
C549        C  0.89880497  0.17057018  0.22759457     1.08600
H550        H  0.81805931  0.31654801  0.26051034     0.34200
O551        O  0.80475509  0.29200674  0.25551087    -1.27700
H552        H  0.82802341  0.17929124  0.18283345     0.33900
O553        O  0.81220239  0.19444076  0.20074927    -1.29400
O554        O  0.74975190  0.25127475  0.37042970    -0.85200
O555        O  0.68812576  0.17456660  0.17005252    -0.86700
O556        O  0.75018450  0.35311672  0.27684104    -0.85300
O557        O  0.83051609  0.15318380  0.32535390    -0.85300
O558        O  0.79571977  0.11110708  0.20733825    -0.85000
O559        O  0.71579234  0.31091387  0.16213680    -0.84800
O560        O  0.64942346  0.25778075  0.27260729    -0.85200
O561        O  0.69889024  0.14528982  0.30371102    -0.84700
O562        O  0.67441116  0.31376434  0.24390388    -0.85700
O563        O  0.75759870  0.11506246  0.29296484    -0.84900
O564        O  0.78135201  0.32700692  0.32967564    -0.85300
O565        O  0.71910681  0.25190043  0.13032946    -0.85000
O566        O  0.76666410  0.14075064  0.15519656    -0.84700
O567        O  0.82600645  0.21185192  0.35789655    -0.85100
O568        O  0.69335622  0.22348944  0.34705914    -0.85400
O569        O  0.65893083  0.17602143  0.23149839    -0.86700
Zr570      Zr  0.79510982  0.25865500  0.31494482     2.83100
Zr571      Zr  0.75150713  0.20678200  0.17336349     2.83500
Zr572      Zr  0.74370749  0.30298755  0.22714085     2.84100
Zr573      Zr  0.80215998  0.16070902  0.26004061     2.83400
Zr574      Zr  0.70271474  0.21071596  0.27595314     2.84200
O575        O  0.74137241  0.17323958  0.23275374    -1.07300
O576        O  0.73423680  0.27062601  0.28744645    -1.06800
C577        C  0.71460092  0.23779456  0.37502965     1.07900
C578        C  0.66009777  0.16671693  0.19469222     1.10500
C579        C  0.76501326  0.35527226  0.31130937     1.08100
C580        C  0.83546489  0.17562753  0.35554046     1.08400
C581        C  0.78243456  0.11142769  0.17180976     1.08000
C582        C  0.71004859  0.28815276  0.13246809     1.07600
C583        C  0.64608561  0.29312001  0.25964924     1.08000
C584        C  0.72221636  0.11632859  0.30628627     1.07500
H585        H  0.68702847  0.24751853  0.20363561     0.34200
O586        O  0.71190615  0.24336332  0.21569893    -1.28400
H587        H  0.75989385  0.18536576  0.32746201     0.34200
O588        O  0.76372615  0.19890700  0.30276274    -1.29800
C589        C  0.49981858  0.36878658  0.75456447     0.81500
N590        N  0.50239438  0.40856542  0.75537509    -0.76800
C591        C  0.53770852  0.42725914  0.75384529     0.84000
N592        N  0.57059485  0.40616270  0.75197360    -0.76700
C593        C  0.56895322  0.36656912  0.75097376     0.84100
N594        N  0.53339738  0.34766954  0.75215199    -0.78500
C595        C  0.49819069  0.12835940  0.85756187     0.81500
N596        N  0.53172479  0.13442693  0.83671360    -0.76800
C597        C  0.56652879  0.13008535  0.85414892     0.84000
N598        N  0.56781931  0.12052003  0.89291972    -0.76700
C599        C  0.53410999  0.11440114  0.91406837     0.84100
N600        N  0.49939171  0.11868554  0.89608602    -0.78500
C601        C  0.64584310  0.23573971  0.53445095     0.81500
N602        N  0.66451210  0.23448726  0.49849292    -0.76800
C603        C  0.64305640  0.23263579  0.46488855     0.84000
N604        N  0.60351317  0.23238397  0.46766180    -0.76700
C605        C  0.58501858  0.23408682  0.50307736     0.84100
N606        N  0.60616402  0.23544702  0.53628856    -0.78500
C607        C  0.87355259  0.12931955  0.45835309     0.81500
N608        N  0.86969976  0.15082515  0.49175728    -0.76800
C609        C  0.87711463  0.13452001  0.52721003     0.84000
N610        N  0.88738596  0.09661381  0.52928337    -0.76700
C611        C  0.89108353  0.07477857  0.49617088     0.84100
N612        N  0.88393640  0.09133707  0.46069100    -0.78500
O613        O  0.80364189  0.21165321  0.87157185    -0.85200
O614        O  0.87015728  0.29086776  0.67163006    -0.85400
O615        O  0.90141507  0.20706227  0.77407081    -0.87000
O616        O  0.85479692  0.32263729  0.80037099    -0.85800
O617        O  0.79471957  0.35094747  0.79608969    -0.85400
O618        O  0.87799263  0.15179498  0.74367506    -0.86700
O619        O  0.89835559  0.28440935  0.73209149    -0.85200
O620        O  0.85824936  0.24371484  0.84716628    -0.84800
Zr621      Zr  0.84962624  0.25540949  0.77684445     2.84300
O622        O  0.81116091  0.29471414  0.73714305    -1.06800
O623        O  0.81941081  0.19420438  0.78698594    -1.07500
C624        C  0.83784471  0.22755421  0.87538166     1.07900
C625        C  0.89913185  0.29382454  0.69534826     1.07900
C626        C  0.90508903  0.17184352  0.76095344     1.10800
C627        C  0.83132249  0.35149399  0.80432070     1.08600
H628        H  0.86581408  0.22100617  0.70320449     0.34200
O629        O  0.84075029  0.22526619  0.71573327    -1.27700
H630        H  0.79216515  0.27804841  0.83193896     0.33900
O631        O  0.78863294  0.26487490  0.80711920    -1.29400
O632        O  0.75710703  0.25842496  0.62113375    -0.85200
O633        O  0.69330503  0.17502630  0.82185560    -0.86700
O634        O  0.83868261  0.16124945  0.65905527    -0.85300
O635        O  0.75696639  0.35810074  0.72101406    -0.85300
O636        O  0.72105229  0.30807168  0.83276891    -0.85000
O637        O  0.80193380  0.11001496  0.77281915    -0.84800
O638        O  0.70642130  0.14617800  0.68836941    -0.85200
O639        O  0.65624580  0.25752760  0.72309432    -0.84700
O640        O  0.76636011  0.11778994  0.69371963    -0.85700
O641        O  0.68043623  0.31218896  0.75383469    -0.84900
O642        O  0.83406648  0.22142137  0.62947692    -0.85300
O643        O  0.77273395  0.13436252  0.82870710    -0.85000
O644        O  0.72434956  0.24794275  0.86250240    -0.84700
O645        O  0.79108339  0.33595221  0.66702998    -0.85100
O646        O  0.70236527  0.22651312  0.64558669    -0.85400
O647        O  0.66448189  0.17989855  0.76151947    -0.86700
Zr648      Zr  0.80274681  0.26545291  0.67582995     2.83100
Zr649      Zr  0.75836074  0.20370425  0.81722538     2.83500
Zr650      Zr  0.81030150  0.16416785  0.72570488     2.84100
Zr651      Zr  0.74984383  0.30348862  0.76694395     2.83400
Zr652      Zr  0.71069874  0.21231657  0.71571046     2.84200
O653        O  0.71981959  0.24235192  0.77680939    -1.07300
O654        O  0.77221415  0.20415055  0.68606406    -1.06800
C655        C  0.72260681  0.24296165  0.61735822     1.07900
C656        C  0.66478871  0.16990439  0.79819430     1.10500
C657        C  0.84354456  0.18517842  0.62986291     1.08100
C658        C  0.77405572  0.36322274  0.68718623     1.08400
C659        C  0.71497070  0.28434400  0.86178173     1.08000
C660        C  0.78783314  0.10624729  0.80823159     1.07600
C661        C  0.73014830  0.11751162  0.68405298     1.08000
C662        C  0.65239762  0.29186862  0.73838800     1.07500
H663        H  0.73639509  0.14860592  0.76013649     0.34200
O664        O  0.74931346  0.17358727  0.75601662    -1.28400
H665        H  0.72512617  0.29000625  0.68920851     0.34200
O666        O  0.74098788  0.27385427  0.70551132    -1.29800
O667        O  0.25630503  0.20258039  0.11921596    -0.85200
O668        O  0.19273510  0.27783317  0.32020207    -0.85400
O669        O  0.15985931  0.18753807  0.22055422    -0.87000
O670        O  0.20279715  0.30640843  0.19075072    -0.85800
O671        O  0.26155606  0.33955052  0.19585303    -0.85400
O672        O  0.18838928  0.13557447  0.25067244    -0.86700
O673        O  0.16309032  0.26948763  0.26056483    -0.85200
O674        O  0.19999873  0.22759047  0.14555602    -0.84800
Zr675      Zr  0.21003618  0.24031653  0.21573281     2.84300
O676        O  0.24805774  0.28214875  0.25524757    -1.06800
O677        O  0.24274269  0.18198663  0.20535288    -1.07500
C678        C  0.22090246  0.21452620  0.11644327     1.07900
C679        C  0.16364515  0.28040142  0.29679751     1.07900
C680        C  0.15953176  0.15214297  0.23424215     1.10800
C681        C  0.22513978  0.33695257  0.18680127     1.08600
H682        H  0.19639100  0.20508336  0.28984270     0.34200
O683        O  0.22105367  0.21088496  0.27671511    -1.27700
H684        H  0.26624571  0.26847185  0.16036521     0.33900
O685        O  0.27034660  0.25535070  0.18502752    -1.29400
O686        O  0.30637065  0.24768176  0.36777445    -0.85200
O687        O  0.36698315  0.16990825  0.16667720    -0.86700
O688        O  0.22708438  0.14683809  0.33273058    -0.85300
O689        O  0.30160476  0.34773380  0.27467483    -0.85300
O690        O  0.34042076  0.30278557  0.16142106    -0.85000
O691        O  0.26073366  0.10126026  0.21828012    -0.84800
O692        O  0.35996162  0.14141050  0.30016495    -0.85200
O693        O  0.40393466  0.25490504  0.26769387    -0.84700
O694        O  0.30108642  0.10876949  0.29608286    -0.85700
O695        O  0.37816643  0.31001281  0.24084916    -0.84900
O696        O  0.22893295  0.20726524  0.36214723    -0.85300
O697        O  0.28740386  0.12712438  0.16130453    -0.85000
O698        O  0.33782633  0.24278045  0.13104137    -0.84700
O699        O  0.27270042  0.32153780  0.33032313    -0.85100
O700        O  0.36248429  0.22105243  0.34242911    -0.85400
O701        O  0.39712030  0.17723744  0.22616111    -0.86700
Zr702      Zr  0.25897907  0.25274656  0.31575140     2.83100
Zr703      Zr  0.30214274  0.19648801  0.17332316     2.83500
Zr704      Zr  0.25478191  0.15297096  0.26640179     2.84100
Zr705      Zr  0.30881219  0.29616064  0.22540316     2.83400
Zr706      Zr  0.35165667  0.20656153  0.27324678     2.84200
O707        O  0.34028286  0.23727432  0.21331585    -1.07300
O708        O  0.29211200  0.19412933  0.30587230    -1.06800
C709        C  0.34165282  0.23569186  0.37066440     1.07900
C710        C  0.39600697  0.16637917  0.18983379     1.10500
C711        C  0.22093504  0.17041470  0.36169400     1.08100
C712        C  0.28827421  0.35014071  0.31039256     1.08400
C713        C  0.34798321  0.27918042  0.13292310     1.08000
C714        C  0.27304518  0.09861218  0.18238113     1.07600
C715        C  0.33753391  0.11107054  0.30485115     1.08000
C716        C  0.40668246  0.29039747  0.25533904     1.07500
H717        H  0.32712997  0.14160430  0.22878987     0.34200
O718        O  0.31384613  0.16579181  0.23349842    -1.28400
H719        H  0.33539939  0.28222722  0.30168510     0.34200
O720        O  0.31964618  0.26550136  0.28525064    -1.29800
C721        C  0.86942683  0.15540867  0.56302781    -0.12000
C722        C  0.85958108  0.16978884  0.59392981    -0.13500
C723        C  0.66673611  0.23564638  0.57244172    -0.15100
C724        C  0.70494488  0.24395089  0.57744979    -0.30300
H725        H  0.64864404  0.22935061  0.59832464     0.13900
H726        H  0.72323300  0.25212763  0.55224311     0.14500
C727        C  0.63014331  0.15228411  0.81502681    -0.12000
C728        C  0.60154868  0.14018334  0.83253090    -0.13500
C729        C  0.60678084  0.34607659  0.75038447    -0.15100
C730        C  0.61260766  0.30904963  0.73858770    -0.30300
H731        H  0.63191578  0.36378981  0.75869223     0.13900
H732        H  0.58811200  0.29136516  0.72860549     0.14500
C733        C  0.69834784  0.23895595  0.41597709    -0.15100
C734        C  0.66089096  0.23011325  0.42479382    -0.30300
H735        H  0.71758151  0.24828618  0.43934386     0.13900
H736        H  0.64146103  0.22221239  0.40108672     0.14500
C737        C  0.85182856  0.15877327  0.39025971    -0.12000
C738        C  0.86304519  0.14553351  0.42094467    -0.13500
C739        C  0.49870366  0.10060221  0.01925765    -0.12100
C740        C  0.53342866  0.10457210  0.04024647     0.10100
C741        C  0.56905962  0.10729229  0.01910690    -0.12100
C742        C  0.56964144  0.10869313  0.97793642    -0.12100
C743        C  0.53461075  0.10726847  0.95710983     0.10100
C744        C  0.49928752  0.10191989  0.97827500    -0.12100
H745        H  0.47076075  0.09798229  0.03448262     0.14100
H746        H  0.59640845  0.11013628  0.03433224     0.14100
H747        H  0.59739459  0.11248806  0.96257853     0.14100
H748        H  0.47173535  0.10017754  0.96328974     0.14100
C749        C  0.45930993  0.13578816  0.15889991    -0.12000
C750        C  0.43015231  0.14881501  0.17355363    -0.13500
C751        C  0.62685932  0.14681027  0.17909165    -0.12000
C752        C  0.59855288  0.13354046  0.16321018    -0.13500
C753        C  0.45275151  0.34734155  0.25370098    -0.15100
C754        C  0.44619333  0.30889033  0.25815629    -0.30300
H755        H  0.42810767  0.36599270  0.24837382     0.13900
H756        H  0.47044123  0.29030457  0.26517008     0.14500
C757        C  0.59965750  0.34829599  0.25386353    -0.15100
C758        C  0.60633608  0.31059824  0.26268878    -0.30300
H759        H  0.62433327  0.36697495  0.24532763     0.13900
H760        H  0.58212350  0.29209473  0.27283136     0.14500
C761        C  0.84786747  0.38782926  0.81789074    -0.12000
C762        C  0.86419076  0.41799724  0.82683479    -0.13500
C763        C  0.87949849  0.55932614  0.83484211    -0.12000
C764        C  0.86752398  0.59143257  0.82763960    -0.13500
C765        C  0.78927181  0.41317914  0.63550281    -0.15100
C766        C  0.77401369  0.40387886  0.67109242    -0.30300
H767        H  0.80124102  0.39002561  0.61736725     0.13900
H768        H  0.76040748  0.42653239  0.68867884     0.14500
C769        C  0.78876906  0.56051231  0.63842868    -0.15100
C770        C  0.78348537  0.56664105  0.67726458    -0.30300
H771        H  0.79356125  0.58573834  0.61945794     0.13900
H772        H  0.77720923  0.54188151  0.69646606     0.14500
C773        C  0.63287686  0.80450973  0.82306953    -0.12000
C774        C  0.60237292  0.81511084  0.83660189    -0.13500
C775        C  0.54235196  0.50472951  0.75129687    -0.12000
C776        C  0.54065436  0.46941320  0.75311595    -0.13500
C777        C  0.59718939  0.63934078  0.73906788    -0.15100
C778        C  0.63367539  0.62930446  0.74784123    -0.30300
H779        H  0.59120712  0.66952439  0.73191569     0.13900
H780        H  0.63881051  0.59927606  0.75634412     0.14500
C781        C  0.90394121  0.96899096  0.46776894    -0.12100
C782        C  0.89998950  0.95003487  0.50438932     0.10100
C783        C  0.89783661  0.97283003  0.53865041    -0.12100
C784        C  0.89702099  0.01356405  0.53611335    -0.12100
C785        C  0.89822259  0.03233696  0.49925295     0.10100
C786        C  0.90299499  0.00961964  0.46523020    -0.12100
H787        H  0.90625838  0.95241106  0.44075021     0.14100
H788        H  0.89505170  0.95922880  0.56732752     0.14100
H789        H  0.89365402  0.03017577  0.56300555     0.14100
H790        H  0.90457594  0.02309905  0.43643345     0.14100
C791        C  0.87453701  0.82862485  0.57771530    -0.12000
C792        C  0.86305632  0.81037429  0.60593742    -0.13500
C793        C  0.66591969  0.71560522  0.58720859    -0.15100
C794        C  0.70394890  0.70924565  0.59318725    -0.30300
H795        H  0.64652312  0.72309481  0.61157169     0.13900
H796        H  0.72287564  0.70074901  0.56879155     0.14500
C797        C  0.68136625  0.72724349  0.41059305    -0.15100
C798        C  0.68996367  0.71322596  0.44594732    -0.30300
H799        H  0.65217017  0.73790582  0.40576533     0.13900
H800        H  0.71937624  0.70373446  0.45167455     0.14500
C801        C  0.87043620  0.82848484  0.43778724    -0.12000
C802        C  0.85837534  0.81246806  0.40904991    -0.13500
C803        C  0.50113902  0.83181309  0.02300592    -0.12100
C804        C  0.53745566  0.83104332  0.04158659     0.10100
C805        C  0.57165722  0.83554667  0.01864808    -0.12100
C806        C  0.56971941  0.83822666  0.97786631    -0.12100
C807        C  0.53353271  0.83634959  0.95904205     0.10100
C808        C  0.49919789  0.83436538  0.98211115    -0.12100
H809        H  0.47415627  0.82884839  0.03987502     0.14100
H810        H  0.60007751  0.83541405  0.03198263     0.14100
H811        H  0.59682029  0.84012271  0.96106287     0.14100
H812        H  0.47087805  0.83319693  0.96856877     0.14100
C813        C  0.61446803  0.80262671  0.15695445    -0.12000
C814        C  0.64582228  0.79632416  0.17117391    -0.13500
C815        C  0.52631125  0.46873057  0.26138637    -0.12000
C816        C  0.52673047  0.50401923  0.26258624    -0.13500
C817        C  0.61450395  0.61624450  0.26134011    -0.15100
C818        C  0.62267492  0.65428910  0.26642348    -0.30300
H819        H  0.63800144  0.59591125  0.25617346     0.13900
H820        H  0.59908413  0.67427200  0.27258845     0.14500
C821        C  0.87583265  0.55137892  0.17947244    -0.12000
C822        C  0.86205006  0.58051363  0.19318348    -0.13500
C823        C  0.84231613  0.38406422  0.16884406    -0.12000
C824        C  0.86000599  0.41344144  0.15999505    -0.13500
C825        C  0.78289387  0.48734701  0.47997391    -0.12000
C826        C  0.78537037  0.48884503  0.51536164    -0.13500
C827        C  0.76898548  0.54231999  0.34740220    -0.15100
C828        C  0.77031135  0.57906876  0.36068999    -0.30300
H829        H  0.76777717  0.53677649  0.31599109     0.13900
H830        H  0.77251499  0.58408377  0.39214193     0.14500
C831        C  0.77446881  0.40076306  0.36704966    -0.15100
C832        C  0.76361614  0.39393920  0.32996108    -0.30300
H833        H  0.78334462  0.37686649  0.38566501     0.13900
H834        H  0.75348058  0.41787882  0.31208130     0.14500
C835        C  0.44709025  0.64913872  0.72988630    -0.15100
C836        C  0.45544621  0.61326537  0.74231283    -0.30300
H837        H  0.47040108  0.66826488  0.71871190     0.13900
H838        H  0.43223545  0.59356071  0.75257890     0.14500
C839        C  0.43377647  0.79622856  0.82281143    -0.12000
C840        C  0.46258791  0.80822191  0.83880145    -0.13500
C841        C  0.04984207  0.43832728  0.85258617    -0.12100
C842        C  0.07299678  0.47218205  0.85765671     0.10100
C843        C  0.05455527  0.50793571  0.86423933    -0.12100
C844        C  0.01405217  0.51027223  0.86336856    -0.12100
C845        C  0.99093394  0.47690516  0.85590324     0.10100
C846        C  0.00918111  0.44067486  0.85166088    -0.12100
H847        H  0.06313324  0.41030003  0.84754805     0.14100
H848        H  0.07147305  0.53450711  0.86875742     0.14100
H849        H  0.00099464  0.53857585  0.86729828     0.14100
H850        H  0.99221676  0.41434671  0.84611002     0.14100
C851        C  0.19470574  0.54071593  0.82669527    -0.12000
C852        C  0.20954822  0.57107883  0.81572000    -0.13500
C853        C  0.30310479  0.54004292  0.65229425    -0.15100
C854        C  0.29354822  0.57633744  0.64175576    -0.30300
H855        H  0.30946164  0.53412880  0.68287042     0.13900
H856        H  0.28580594  0.58165626  0.61140153     0.14500
C857        C  0.20481427  0.82338814  0.57281211    -0.12000
C858        C  0.21338599  0.81008708  0.60438868    -0.13500
C859        C  0.55550120  0.71983062  0.49891923    -0.12000
C860        C  0.52038745  0.72170856  0.49661236    -0.13500
C861        C  0.39967835  0.73222868  0.57199882    -0.15100
C862        C  0.36115950  0.72771441  0.57911155    -0.30300
H863        H  0.41875412  0.73708409  0.59675011     0.13900
H864        H  0.34201670  0.72137113  0.55474140     0.14500
C865        C  0.45316025  0.31164174  0.74913165    -0.15100
C866        C  0.46012662  0.34977858  0.75663551    -0.30300
H867        H  0.47766071  0.29338608  0.74121338     0.13900
H868        H  0.43556363  0.36840383  0.76326149     0.14500
C869        C  0.43231754  0.14820535  0.82568185    -0.12000
C870        C  0.46178062  0.13705578  0.84018498    -0.13500
C871        C  0.30356569  0.39106203  0.67110326    -0.15100
C872        C  0.29966347  0.39802918  0.63240119    -0.30300
H873        H  0.30993517  0.41522607  0.69080778     0.13900
H874        H  0.29448435  0.37383162  0.61241208     0.14500
C875        C  0.20841567  0.36994110  0.82508529    -0.12000
C876        C  0.19261170  0.39985534  0.83417764    -0.13500
C877        C  0.16911883  0.00163089  0.53799913    -0.12100
C878        C  0.16633774  0.02213510  0.50244329     0.10100
C879        C  0.16150623  0.00105832  0.46735536    -0.12100
C880        C  0.16278304  0.96038751  0.46743515    -0.12100
C881        C  0.16883864  0.94008087  0.50261020     0.10100
C882        C  0.17034004  0.96101560  0.53808436    -0.12100
H883        H  0.17243215  0.01693725  0.56562217     0.14100
H884        H  0.15870082  0.01596837  0.43950793     0.14100
H885        H  0.16088176  0.94504690  0.43967946     0.14100
H886        H  0.17458271  0.94625624  0.56578417     0.14100
C887        C  0.21566427  0.15660669  0.59846292    -0.12000
C888        C  0.20299557  0.14215593  0.56903099    -0.13500
C889        C  0.20476085  0.15411471  0.39708637    -0.12000
C890        C  0.19449029  0.14017780  0.42804339    -0.13500
C891        C  0.50791839  0.23704470  0.50364767    -0.12000
C892        C  0.54304931  0.23533780  0.50500873    -0.13500
C893        C  0.38749855  0.24618198  0.59570036    -0.15100
C894        C  0.37495851  0.24752955  0.55873400    -0.30300
H895        H  0.41863392  0.24444423  0.60070988     0.13900
H896        H  0.34386706  0.24780908  0.55318068     0.14500
C897        C  0.35876079  0.23922713  0.40987850    -0.15100
C898        C  0.39681975  0.23419897  0.41659902    -0.30300
H899        H  0.33919964  0.24702121  0.43401480     0.13900
H900        H  0.41680353  0.22758005  0.39244347     0.14500
C901        C  0.43521591  0.62344528  0.26611703    -0.15100
C902        C  0.47230489  0.63651955  0.26843748    -0.30300
H903        H  0.42992245  0.59222788  0.26298054     0.13900
H904        H  0.47829435  0.66771324  0.27015227     0.14500
C905        C  0.47241317  0.79043260  0.16280024    -0.12000
C906        C  0.44095806  0.78079454  0.17656714    -0.13500
C907        C  0.36068659  0.72034490  0.41856493    -0.15100
C908        C  0.39932184  0.72536027  0.42403283    -0.30300
H909        H  0.34150451  0.71530975  0.44390938     0.13900
H910        H  0.41834888  0.72902487  0.39833835     0.14500
C911        C  0.20570832  0.82461100  0.42901564    -0.12000
C912        C  0.21441995  0.81089050  0.39735769    -0.13500
C913        C  0.05168915  0.50642707  0.13358441    -0.12100
C914        C  0.07029894  0.47077700  0.13978734     0.10100
C915        C  0.04735602  0.43657331  0.14404958    -0.12100
C916        C  0.00660419  0.43844936  0.14442732    -0.12100
C917        C  0.98813569  0.47457247  0.14069767     0.10100
C918        C  0.01113736  0.50831320  0.13415075    -0.12100
H919        H  0.06844502  0.53329068  0.12964931     0.14100
H920        H  0.06078156  0.40865536  0.14884172     0.14100
H921        H  0.98965322  0.41187963  0.14946604     0.14100
H922        H  0.99782291  0.53648480  0.13061757     0.14100
C923        C  0.20224478  0.57217675  0.18317780    -0.12000
C924        C  0.18862138  0.54172643  0.17166840    -0.13500
C925        C  0.19104921  0.40106823  0.16330132    -0.12000
C926        C  0.20734750  0.37153733  0.17220272    -0.13500
C927        C  0.29508854  0.48276824  0.48219419    -0.12000
C928        C  0.29715310  0.48370695  0.51787961    -0.13500
C929        C  0.29334737  0.53696118  0.34738933    -0.15100
C930        C  0.28495199  0.57337765  0.35854245    -0.30300
H931        H  0.29879369  0.53077971  0.31645751     0.13900
H932        H  0.27790252  0.57893973  0.38931286     0.14500
C933        C  0.28656354  0.39560500  0.36795058    -0.15100
C934        C  0.29123538  0.38915856  0.32900566    -0.30300
H935        H  0.28080976  0.37124863  0.38779622     0.13900
H936        H  0.29855583  0.41355312  0.30964801     0.14500
C937        C  0.12816836  0.29548219  0.31284584    -0.12000
C938        C  0.09768049  0.30485855  0.32775416    -0.13500
C939        C  0.95698140  0.30894049  0.33134566    -0.12000
C940        C  0.92692539  0.30159322  0.31458318    -0.13500
C941        C  0.08813069  0.13923257  0.22491474    -0.15100
C942        C  0.12433013  0.12686357  0.23151300    -0.30300
H943        H  0.08306835  0.17004695  0.22004103     0.13900
H944        H  0.12849620  0.09612371  0.23779324     0.14500
C945        C  0.94580985  0.11599518  0.23185341    -0.15100
C946        C  0.93814426  0.15355970  0.22367167    -0.30300
H947        H  0.92213235  0.09602947  0.24028164     0.13900
H948        H  0.96183370  0.17305594  0.21415437     0.14500
C949        C  0.95807187  0.64320352  0.35567636    -0.12000
C950        C  0.92786999  0.65543911  0.34375567    -0.13500
C951        C  0.09843566  0.64594485  0.34414455    -0.12000
C952        C  0.12765013  0.65788069  0.32763624    -0.13500
C953        C  0.03936301  0.97100888  0.24175620    -0.12000
C954        C  0.03497190  0.00596034  0.23876993    -0.13500
C955        C  0.96645016  0.84970410  0.25646340    -0.15100
C956        C  0.95899870  0.81134873  0.25181204    -0.30300
H957        H  0.94210493  0.86878456  0.26257431     0.13900
H958        H  0.98294459  0.79219645  0.24441713     0.14500
C959        C  0.11363142  0.84978681  0.24582588    -0.15100
C960        C  0.11908038  0.81125462  0.23938816    -0.30300
H961        H  0.13913326  0.86842484  0.25029872     0.13900
H962        H  0.09380785  0.79277589  0.23337451     0.14500
C963        C  0.99956048  0.60137948  0.52982301    -0.12100
C964        C  0.03487245  0.60617526  0.54950840     0.10100
C965        C  0.07005932  0.60707047  0.52754812    -0.12100
C966        C  0.06963263  0.60688288  0.48652853    -0.12100
C967        C  0.03402266  0.60557001  0.46683694     0.10100
C968        C  0.99914431  0.60092684  0.48890524    -0.12100
H969        H  0.97203563  0.59993832  0.54594533     0.08100
H970        H  0.09784605  0.61040613  0.54188743     0.14100
H971        H  0.09703216  0.61005930  0.47039601     0.14100
H972        H  0.97119233  0.59916661  0.47467054     0.14100
C973        C  0.10588500  0.63770610  0.66694879    -0.12000
C974        C  0.13563778  0.64932612  0.68095796    -0.13500
C975        C  0.93902278  0.66736057  0.68186560    -0.12000
C976        C  0.96755127  0.65362711  0.66665638    -0.13500
C977        C  0.12197518  0.81080204  0.77306737    -0.15100
C978        C  0.11670656  0.84946896  0.76834710    -0.30300
H979        H  0.09715584  0.79188977  0.78056001     0.13900
H980        H  0.14157503  0.86867821  0.76194535     0.14500
C981        C  0.97480499  0.83190502  0.77603393    -0.15100
C982        C  0.93895785  0.84220320  0.76542301    -0.30300
H983        H  0.97998955  0.80162017  0.78347227     0.13900
H984        H  0.93447998  0.87220988  0.75642870     0.14500
C985        C  0.99903396  0.32250882  0.51778976    -0.12100
C986        C  0.03525928  0.32101270  0.53655291     0.10100
C987        C  0.06944135  0.32067075  0.51318041    -0.12100
C988        C  0.06740553  0.32090098  0.47215051    -0.12100
C989        C  0.03112017  0.32137942  0.45337319     0.10100
C990        C  0.99698993  0.32261394  0.47673888    -0.12100
H991        H  0.97203784  0.32284945  0.53479371     0.14100
H992        H  0.09782147  0.31967640  0.52653121     0.14100
H993        H  0.09440831  0.32006550  0.45518084     0.14100
H994        H  0.96860326  0.32305659  0.46336266     0.14100
C995        C  0.10850397  0.29908802  0.65700029    -0.12000
C996        C  0.13828623  0.29005078  0.67296464    -0.13500
C997        C  0.96778033  0.31212379  0.66333978    -0.12000
C998        C  0.93622847  0.30632951  0.67885248    -0.13500
C999        C  0.03483265  0.96531503  0.77012800    -0.12000
C1000       C  0.03350402  0.00091981  0.76956569    -0.13500
C1001       C  0.12960812  0.12354972  0.76128662    -0.15100
C1002       C  0.09317576  0.13463159  0.77074208    -0.30300
H1003       H  0.13398110  0.09314545  0.75350840     0.13900
H1004       H  0.08793897  0.16524536  0.77676582     0.14500
C1005       C  0.94393057  0.15403582  0.76591776    -0.15100
C1006       C  0.95077310  0.11565418  0.76097603    -0.30300
H1007       H  0.96771832  0.17337774  0.77459338     0.13900
H1008       H  0.92680332  0.09588883  0.75383811     0.14500
C1009       C  0.35521283  0.07636174  0.31950955    -0.12000
C1010       C  0.37137899  0.04663940  0.32819892    -0.13500
C1011       C  0.37476631  0.90568231  0.32063464    -0.12000
C1012       C  0.36131237  0.87457075  0.31094782    -0.13500
C1013       C  0.27074911  0.05907347  0.16546874    -0.15100
C1014       C  0.27850633  0.05092611  0.12758736    -0.30300
H1015       H  0.26206297  0.03555060  0.18541203     0.13900
H1016       H  0.28602211  0.07428238  0.10704561     0.14500
C1017       C  0.26994703  0.90993088  0.15329522    -0.15100
C1018       C  0.28000699  0.87351246  0.14353221    -0.30300
H1019       H  0.26211338  0.91657214  0.18363201     0.13900
H1020       H  0.28941485  0.86780009  0.11340745     0.14500
C1021       C  0.70042743  0.05018131  0.65957988    -0.12000
C1022       C  0.71452403  0.08137011  0.66884633    -0.13500
C1023       C  0.69502905  0.90829928  0.66566046    -0.12000
C1024       C  0.70762607  0.87767760  0.67697369    -0.13500
C1025       C  0.78095238  0.05998344  0.86465597    -0.15100
C1026       C  0.78885742  0.06630105  0.82616860    -0.30300
H1027       H  0.77453325  0.08499293  0.88316960     0.13900
H1028       H  0.79704488  0.04189181  0.80757541     0.14500
C1029       C  0.77809379  0.91262682  0.86928365    -0.15100
C1030       C  0.78507493  0.90500655  0.83103235    -0.30300
H1031       H  0.77226539  0.88825877  0.88912874     0.13900
H1032       H  0.79239622  0.92908245  0.81128673     0.14500
C1033       C  0.36886453  0.29518449  0.09989723    -0.12000
C1034       C  0.38278793  0.30985223  0.07071532    -0.13500
C1035       C  0.37367164  0.30912880  0.93089586    -0.12000
C1036       C  0.35990255  0.29410462  0.90235525    -0.13500
C1037       C  0.16535777  0.22057617  0.07114447    -0.15100
C1038       C  0.20342871  0.21363346  0.07656208    -0.30300
H1039       H  0.14678458  0.22592848  0.09674420     0.13900
H1040       H  0.22213919  0.20715037  0.05136274     0.14500
C1041       C  0.16579574  0.22344764  0.92367275    -0.15100
C1042       C  0.20311387  0.21433112  0.91725123    -0.30300
H1043       H  0.14790855  0.23081352  0.89879076     0.13900
H1044       H  0.22089059  0.20588724  0.94185203     0.14500
C1045       C  0.71356167  0.63538106  0.08059604    -0.12000
C1046       C  0.72374116  0.65121055  0.11050389    -0.13500
C1047       C  0.70983601  0.64558753  0.93947673    -0.12000
C1048       C  0.71876650  0.66273607  0.90968011    -0.13500
C1049       C  0.88194442  0.74339130  0.06914351    -0.15100
C1050       C  0.89380617  0.73468918  0.10535705    -0.30300
H1051       H  0.85169881  0.75077188  0.06449863     0.13900
H1052       H  0.92382304  0.72616845  0.10952912     0.14500
C1053       C  0.86320211  0.75104046  0.91971752    -0.15100
C1054       C  0.90078494  0.74356409  0.92593797    -0.30300
H1055       H  0.84382087  0.75792241  0.94430223     0.13900
H1056       H  0.92042434  0.73765355  0.90129227     0.14500
C1057       C  0.51751803  0.94408220  0.63290631    -0.12100
C1058       C  0.49742582  0.97933655  0.63548905     0.10100
C1059       C  0.51877426  0.01475895  0.63328943    -0.12100
C1060       C  0.55945921  0.01487225  0.63160483    -0.12100
C1061       C  0.57962318  0.97956842  0.63204464     0.10100
C1062       C  0.55819019  0.94419400  0.63111492    -0.12100
H1063       H  0.50193665  0.91631023  0.63390678     0.14100
H1064       H  0.50420990  0.04250867  0.63476412     0.14100
H1065       H  0.57503374  0.04265287  0.63192918     0.14100
H1066       H  0.57278882  0.91644059  0.63089150     0.14100
C1067       C  0.36475457  0.08070898  0.67355094    -0.12000
C1068       C  0.37948573  0.05069097  0.66368328    -0.13500
C1069       C  0.37681816  0.91080153  0.67487219    -0.12000
C1070       C  0.35985313  0.88148745  0.68551668    -0.13500
C1071       C  0.27602622  0.96237809  0.98157967    -0.12000
C1072       C  0.27674527  0.96121160  0.01717051    -0.13500
C1073       C  0.27547456  0.05218524  0.86985804    -0.15100
C1074       C  0.26969602  0.05952781  0.83152016    -0.30300
H1075       H  0.28297911  0.07585249  0.88974455     0.13900
H1076       H  0.26129271  0.03577786  0.81207278     0.14500
C1077       C  0.26429368  0.91149900  0.84688713    -0.15100
C1078       C  0.27230954  0.87495206  0.85744712    -0.30300
H1079       H  0.25837139  0.91807035  0.81634648     0.13900
H1080       H  0.27973202  0.86910516  0.88779715     0.14500
C1081       C  0.55357614  0.01293650  0.36159075    -0.12100
C1082       C  0.57428385  0.97787784  0.35893274     0.10100
C1083       C  0.55330447  0.94253346  0.35555589    -0.12100
C1084       C  0.51272619  0.94241645  0.35296894    -0.12100
C1085       C  0.49218938  0.97764935  0.35365523     0.10100
C1086       C  0.51300401  0.01282769  0.35891363    -0.12100
H1087       H  0.56876273  0.04074496  0.36449479     0.14100
H1088       H  0.56825847  0.91502364  0.35355452     0.14100
H1089       H  0.49762362  0.91467422  0.34919986     0.14100
H1090       H  0.49811954  0.04042060  0.35985606     0.14100
C1091       C  0.69370986  0.05215336  0.33811273    -0.12000
C1092       C  0.70727522  0.08210481  0.32529043    -0.13500
C1093       C  0.71626052  0.88444297  0.32588044    -0.12000
C1094       C  0.69857732  0.91267751  0.33662081    -0.13500
C1095       C  0.78945615  0.98832314  0.02368728    -0.12000
C1096       C  0.78621629  0.98978543  0.98839914    -0.13500
C1097       C  0.79733456  0.04146810  0.15764979    -0.15100
C1098       C  0.78535183  0.07665860  0.14626921    -0.30300
H1099       H  0.80520084  0.03661701  0.18802655     0.13900
H1100       H  0.77635540  0.08045368  0.11604435     0.14500
C1101       C  0.80292129  0.90008121  0.13402304    -0.15100
C1102       C  0.81224300  0.89303138  0.17136709    -0.30300
H1103       H  0.79487696  0.87614601  0.11467050     0.13900
H1104       H  0.82125555  0.91717756  0.19007317     0.14500
C1105       C  0.66358980  0.45873264  0.03429639    -0.12100
C1106       C  0.66441848  0.43938570  0.99777918     0.10100
C1107       C  0.66778703  0.46191135  0.96329561    -0.12100
C1108       C  0.67293636  0.50255266  0.96551809    -0.12100
C1109       C  0.67495482  0.52143281  0.00226818     0.10100
C1110       C  0.66896016  0.49911517  0.03650894    -0.12100
H1111       H  0.66051109  0.44254019  0.06154734     0.14100
H1112       H  0.66814692  0.44805812  0.93467890     0.14100
H1113       H  0.67692374  0.51891527  0.93846078     0.14100
H1114       H  0.66968537  0.51263394  0.06526702     0.14100
C1115       C  0.69310417  0.30467621  0.09825104    -0.12000
C1116       C  0.68230930  0.31863507  0.06794310    -0.13500
C1117       C  0.68615975  0.31699439  0.92622681    -0.12000
C1118       C  0.69754690  0.30068891  0.89677815    -0.13500
C1119       C  0.01080452  0.23460358  0.99642565    -0.12000
C1120       C  0.04569347  0.23186330  0.99808728    -0.13500
C1121       C  0.85006135  0.22950052  0.07427563    -0.15100
C1122       C  0.88876228  0.23343986  0.06872643    -0.30300
H1123       H  0.83126220  0.22517780  0.04923098     0.13900
H1124       H  0.90727244  0.23615281  0.09421661     0.14500
C1125       C  0.85457769  0.22729823  0.91540605    -0.15100
C1126       C  0.89161823  0.23886761  0.92185333    -0.30300
H1127       H  0.83651686  0.21639830  0.93974877     0.13900
H1128       H  0.90998747  0.24820754  0.89709600     0.14500
C1129       C  0.40294348  0.49011219  0.96197479    -0.12100
C1130       C  0.39906025  0.51066249  0.99751785     0.10100
C1131       C  0.40347314  0.49056305  0.03314697    -0.12100
C1132       C  0.40830469  0.45025504  0.03332411    -0.12100
C1133       C  0.40863242  0.42919659  0.99788132     0.10100
C1134       C  0.40771820  0.44975644  0.96215372    -0.12100
H1135       H  0.40030204  0.50481320  0.93399728     0.14100
H1136       H  0.40128670  0.50559717  0.06108522     0.14100
H1137       H  0.40944452  0.43542327  0.06138196     0.14100
H1138       H  0.40850214  0.43447729  0.93429010     0.14100
C1139       C  0.34652943  0.63609973  0.10283835    -0.12000
C1140       C  0.35510184  0.62347473  0.07067489    -0.13500
C1141       C  0.35874821  0.62631265  0.92665072    -0.12000
C1142       C  0.35126597  0.64063927  0.89517166    -0.13500
C1143       C  0.01254597  0.73064778  0.00873382    -0.12000
C1144       C  0.04752125  0.72751873  0.00766376    -0.13500
C1145       C  0.16846777  0.71815324  0.07661924    -0.15100
C1146       C  0.20665645  0.72453423  0.08244358    -0.30300
H1147       H  0.14944530  0.71256150  0.10199757     0.13900
H1148       H  0.22581990  0.73141183  0.05749959     0.14500
C1149       C  0.16675917  0.72144656  0.92853106    -0.15100
C1150       C  0.20532552  0.72533901  0.92109650    -0.30300
H1151       H  0.14731024  0.71840750  0.90381813     0.13900
H1152       H  0.22490729  0.72989777  0.94548326     0.14500
loop_ 
_geom_bond_atom_site_label_1 
_geom_bond_atom_site_label_2 
_geom_bond_distance 
_geom_bond_site_symmetry_2 
_ccdc_geom_bond_type 
C1            N2   1.360       .  A
C1            N6   1.372   1_556  A
C1         C1149   1.492       .  S
N2            C3   1.355   1_556  A
C3            N4   1.349       .  A
C3         C1144   1.436       .  S
N4            C5   1.355       .  A
C5            N6   1.372       .  A
C5         C1145   1.484       .  S
C7            N8   1.352       .  A
C7           N12   1.364   1_554  A
C7         C1140   1.441       .  S
N8            C9   1.356   1_554  A
C9           N10   1.359       .  A
C9         C1130   1.478       .  S
N10          C11   1.356       .  A
C11          N12   1.365       .  A
C11        C1141   1.445       .  S
C13          N14   1.355       .  A
C13          N18   1.367   1_554  A
C13        C1122   1.476       .  S
N14          C15   1.349   1_554  A
C15          N16   1.354       .  A
C15        C1119   1.433   1_655  S
N16          C17   1.360       .  A
C17          N18   1.367       .  A
C17        C1126   1.481       .  S
C19          N20   1.363       .  A
C19          N24   1.357       .  A
C19        C1117   1.440       .  S
N20          C21   1.364       .  A
C21          N22   1.358   1_556  A
C21        C1106   1.487       .  S
N22          C23   1.351       .  A
C23          N24   1.355   1_554  A
C23        C1116   1.432       .  S
C25          N26   1.356       .  A
C25          N30   1.361       .  A
C25        C1101   1.474       .  S
N26          C27   1.355       .  A
C27          N28   1.359   1_565  A
C27        C1095   1.440       .  S
N28          C29   1.364       .  A
C29          N30   1.356   1_545  A
C29        C1097   1.485       .  S
C31          N32   1.351       .  A
C31          N36   1.352   1_545  A
C31        C1091   1.421       .  S
N32          C33   1.356   1_545  A
C33          N34   1.363       .  A
C33        C1082   1.481       .  S
N34          C35   1.360       .  A
C35          N36   1.353       .  A
C35        C1094   1.433       .  S
C37          N38   1.360       .  A
C37          N42   1.358   1_545  A
C37        C1073   1.480       .  S
N38          C39   1.360   1_545  A
C39          N40   1.360       .  A
C39        C1071   1.446       .  S
N40          C41   1.364       .  A
C41          N42   1.354       .  A
C41        C1077   1.479       .  S
C43          N44   1.354       .  A
C43          N48   1.357       .  A
C43        C1069   1.432       .  S
N44          C45   1.354   1_565  A
C45          N46   1.352       .  A
C45        C1068   1.425       .  S
N46          C47   1.357   1_545  A
C47          N48   1.361       .  A
C47        C1058   1.479       .  S
C49          N50   1.364       .  A
C49          N54   1.356   1_554  A
C49        C1049   1.478       .  S
N50          C51   1.360       .  A
C51          N52   1.352   1_554  A
C51        C1143   1.435   1_655  S
N52          C53   1.353       .  A
C53          N54   1.358       .  A
C53        C1054   1.467       .  S
C55          N56   1.355       .  A
C55          N60   1.359       .  A
C55        C1045   1.438       .  S
N56          C57   1.354   1_554  A
C57          N58   1.356       .  A
C57        C1047   1.431       .  S
N58          C59   1.359   1_556  A
C59          N60   1.364       .  A
C59        C1109   1.486       .  S
C61          N62   1.353       .  A
C61          N66   1.370       .  A
C61        C1041   1.477       .  S
N62          C63   1.348       .  A
C63          N64   1.355   1_556  A
C63        C1120   1.433       .  S
N64          C65   1.360       .  A
C65          N66   1.369   1_554  A
C65        C1037   1.487       .  S
C67          N68   1.354       .  A
C67          N72   1.352   1_556  A
C67        C1035   1.425       .  S
N68          C69   1.359       .  A
C69          N70   1.359   1_556  A
C69        C1133   1.478       .  S
N70          C71   1.355       .  A
C71          N72   1.352       .  A
C71        C1034   1.424       .  S
C73          N74   1.374       .  A
C73          N78   1.359       .  A
C73        C1029   1.492       .  S
N74          C75   1.373   1_565  A
C75          N76   1.360       .  A
C75        C1025   1.493       .  S
N76          C77   1.354   1_545  A
C77          N78   1.353       .  A
C77        C1096   1.441       .  S
C79          N80   1.361   1_545  A
C79          N84   1.356       .  A
C79        C1021   1.441       .  S
N80          C81   1.361       .  A
C81          N82   1.353       .  A
C81        C1023   1.438       .  S
N82          C83   1.357       .  A
C83          N84   1.359   1_565  A
C83        C1061   1.479       .  S
C85          N86   1.355       .  A
C85          N90   1.360   1_545  A
C85        C1014   1.477       .  S
N86          C87   1.356   1_545  A
C87          N88   1.364       .  A
C87        C1072   1.445       .  S
N88          C89   1.367       .  A
C89          N90   1.357       .  A
C89        C1017   1.487       .  S
C91          N92   1.357       .  A
C91          N96   1.350       .  A
C91        C1011   1.429       .  S
N92          C93   1.358   1_565  A
C93          N94   1.360       .  A
C93        C1010   1.439       .  S
N94          C95   1.362   1_545  A
C95          N96   1.355       .  A
C95        C1085   1.481       .  S
C97          N98   1.362       .  A
C97         N102   1.361   1_655  A
C97        C1006   1.489       .  S
N98          C99   1.361   1_655  A
C99         N100   1.368       .  A
C99        C1000   1.462       .  S
N100        C101   1.371       .  A
C101        N102   1.360       .  A
C101       C1002   1.499       .  S
C103        N104   1.359       .  A
C103        N108   1.354       .  A
C103        C997   1.439   1_455  S
N104        C105   1.360       .  A
C105        N106   1.361       .  A
C105        C995   1.444       .  S
N106        C107   1.363       .  A
C107        N108   1.358       .  A
C107        C986   1.487       .  S
C109        N110   1.362       .  A
C109        N114   1.357       .  A
C109        C978   1.483       .  S
N110        C111   1.362       .  A
C111        N112   1.369       .  A
C111        C999   1.462       .  S
N112        C113   1.370       .  A
C113        N114   1.355       .  A
C113        C981   1.491   1_455  S
C115        N116   1.352       .  A
C115        N120   1.356       .  A
C115        C976   1.428   1_455  S
N116        C117   1.353       .  A
C117        N118   1.352       .  A
C117        C973   1.419       .  S
N118        C119   1.356       .  A
C119        N120   1.360       .  A
C119        C964   1.475       .  S
C121        N122   1.374       .  A
C121        N126   1.367       .  A
C121        C959   1.504       .  S
N122        C123   1.373       .  A
C123        N124   1.356       .  A
C123        C955   1.492   1_455  S
N124        C125   1.352       .  A
C125        N126   1.361       .  A
C125        C953   1.449       .  S
C127        N128   1.358       .  A
C127        N132   1.357       .  A
C127        C951   1.433       .  S
N128        C129   1.360       .  A
C129        N130   1.356   1_455  A
C129        C967   1.476       .  S
N130        C131   1.350       .  A
C131        N132   1.356   1_655  A
C131        C949   1.429       .  S
C133        N134   1.363       .  A
C133        N138   1.362   1_655  A
C133        C945   1.485       .  S
N134        C135   1.361   1_655  A
C135        N136   1.357       .  A
C135        C954   1.450       .  S
N136        C137   1.363       .  A
C137        N138   1.358       .  A
C137        C941   1.486       .  S
C139        N140   1.352       .  A
C139        N144   1.356       .  A
C139        C938   1.430       .  S
N140        C141   1.356       .  A
C141        N142   1.365   1_455  A
C141        C989   1.487       .  S
N142        C143   1.363       .  A
C143        N144   1.357   1_655  A
C143        C939   1.442       .  S
C145        N146   1.354       .  A
C145        N150   1.366       .  A
C145        C929   1.483       .  S
N146        C147   1.357       .  A
C147        N148   1.362       .  A
C147        C933   1.486       .  S
N148        C149   1.363       .  A
C149        N150   1.364       .  A
C149        C927   1.455       .  S
C151        N152   1.358       .  A
C151        N156   1.360       .  A
C151        C925   1.436       .  S
N152        C153   1.356       .  A
C153        N154   1.351       .  A
C153        C924   1.431       .  S
N154        C155   1.357       .  A
C155        N156   1.362       .  A
C155        C914   1.481       .  S
O157       Zr193   2.441       .  S
O157        C168   1.291       .  A
O158       Zr192   2.436       .  S
O158        C169   1.290       .  A
O159       Zr165   2.451       .  S
O159        C170   1.294       .  A
O160       Zr165   2.468       .  S
O160        C171   1.297       .  A
O161       Zr195   2.479       .  S
O161        C171   1.300       .  A
O162       Zr194   2.420       .  S
O162        C170   1.287       .  A
O163       Zr165   2.439       .  S
O163        C169   1.291       .  A
O164       Zr165   2.464       .  S
O164        C168   1.299       .  A
Zr165       O166   2.346       .  S
Zr165       O167   2.339       .  S
Zr165       O175   2.343       .  S
Zr165       O173   2.357       .  S
O166       Zr192   2.349       .  S
O166       Zr195   2.338       .  S
O167       Zr193   2.338       .  S
O167       Zr194   2.339       .  S
C168       C1146   1.491       .  S
C169        C952   1.432       .  S
C170        C923   1.431       .  S
C171        C960   1.507       .  S
H172        O173   0.966       .  S
O173       Zr192   2.348       .  S
O173       Zr194   2.341       .  S
H174        O175   0.965       .  S
O175       Zr193   2.353       .  S
O175       Zr195   2.339       .  S
O176       Zr192   2.461       .  S
O176        C199   1.295       .  A
O177       Zr193   2.465       .  S
O177        C200   1.296       .  A
O178       Zr194   2.481       .  S
O178        C201   1.300       .  A
O179       Zr195   2.470       .  S
O179        C202   1.297       .  A
O180       Zr195   2.483       .  S
O180        C203   1.301       .  A
O181       Zr194   2.477       .  S
O181        C204   1.298       .  A
O182       Zr196   2.498       .  S
O182        C205   1.303       .  A
O183       Zr196   2.457       .  S
O183        C206   1.296       .  A
O184       Zr194   2.417       .  S
O184        C205   1.288       .  A
O185       Zr195   2.417       .  S
O185        C206   1.288       .  A
O186       Zr192   2.411       .  S
O186        C201   1.286       .  A
O187       Zr193   2.410       .  S
O187        C204   1.284       .  A
O188       Zr193   2.418       .  S
O188        C203   1.287       .  A
O189       Zr192   2.419       .  S
O189        C202   1.286       .  A
O190       Zr196   2.458       .  S
O190        C199   1.296       .  A
O191       Zr196   2.422       .  S
O191        C200   1.287       .  A
Zr192       O198   2.338       .  S
Zr192       O210   2.329       .  S
Zr193       O197   2.330       .  S
Zr193       O208   2.342       .  S
Zr194       O198   2.346       .  S
Zr194       O208   2.344       .  S
Zr195       O197   2.364       .  S
Zr195       O210   2.366       .  S
Zr196       O197   2.365       .  S
Zr196       O198   2.336       .  S
Zr196       O210   2.352       .  S
Zr196       O208   2.345       .  S
C199        C907   1.498       .  S
C200        C906   1.439       .  S
C201        C930   1.482       .  S
C202        C912   1.440       .  S
C203       C1018   1.484       .  S
C204       C1139   1.440       .  S
C205        C901   1.488       .  S
C206       C1012   1.428       .  S
H207        O208   0.966       .  S
H209        O210   0.966       .  S
C211        N212   1.359       .  A
C211        N216   1.358       .  A
C211        C898   1.475       .  S
N212        C213   1.354       .  A
C213        N214   1.364       .  A
C213        C894   1.481       .  S
N214        C215   1.359       .  A
C215        N216   1.357       .  A
C215        C891   1.441       .  S
C217        N218   1.355       .  A
C217        N222   1.353       .  A
C217        C890   1.426       .  S
N218        C219   1.355       .  A
C219        N220   1.354       .  A
C219        C888   1.429       .  S
N220        C221   1.358       .  A
C221        N222   1.357       .  A
C221        C878   1.476       .  S
O223       Zr259   2.440       .  S
O223        C234   1.292       .  A
O224       Zr258   2.423       .  S
O224        C235   1.288       .  A
O225       Zr231   2.431       .  S
O225        C236   1.289       .  A
O226       Zr231   2.415       .  S
O226        C237   1.286       .  A
O227       Zr261   2.469       .  S
O227        C237   1.300       .  A
O228       Zr260   2.429       .  S
O228        C236   1.288       .  A
O229       Zr231   2.436       .  S
O229        C235   1.290       .  A
O230       Zr231   2.444       .  S
O230        C234   1.293       .  A
Zr231       O232   2.340       .  S
Zr231       O233   2.335       .  S
Zr231       O241   2.342       .  S
Zr231       O239   2.338       .  S
O232       Zr258   2.353       .  S
O232       Zr261   2.351       .  S
O233       Zr259   2.340       .  S
O233       Zr260   2.338       .  S
C234       C1074   1.476       .  S
C235       C1036   1.424       .  S
C236        C869   1.428       .  S
C237       C1042   1.482       .  S
H238        O239   0.965       .  S
O239       Zr258   2.341       .  S
O239       Zr260   2.324       .  S
H240        O241   0.966       .  S
O241       Zr259   2.340       .  S
O241       Zr261   2.333       .  S
O242       Zr258   2.441       .  S
O242        C265   1.292       .  A
O243       Zr259   2.437       .  S
O243        C266   1.290       .  A
O244       Zr260   2.448       .  S
O244        C267   1.293       .  A
O245       Zr261   2.444       .  S
O245        C268   1.293       .  A
O246       Zr261   2.503       .  S
O246        C269   1.304       .  A
O247       Zr260   2.434       .  S
O247        C270   1.290       .  A
O248       Zr262   2.476       .  S
O248        C271   1.299       .  A
O249       Zr262   2.453       .  S
O249        C272   1.294       .  A
O250       Zr260   2.402       .  S
O250        C271   1.284       .  A
O251       Zr261   2.450       .  S
O251        C272   1.294       .  A
O252       Zr258   2.483       .  S
O252        C267   1.300       .  A
O253       Zr259   2.425       .  S
O253        C270   1.288       .  A
O254       Zr259   2.428       .  S
O254        C269   1.289       .  A
O255       Zr258   2.442       .  S
O255        C268   1.292       .  A
O256       Zr262   2.450       .  S
O256        C265   1.294       .  A
O257       Zr262   2.429       .  S
O257        C266   1.289       .  A
Zr258       O264   2.331       .  S
Zr258       O276   2.354       .  S
Zr259       O263   2.333       .  S
Zr259       O274   2.347       .  S
Zr260       O264   2.341       .  S
Zr260       O274   2.345       .  S
Zr261       O263   2.342       .  S
Zr261       O276   2.370       .  S
Zr262       O263   2.355       .  S
Zr262       O264   2.342       .  S
Zr262       O276   2.344       .  S
Zr262       O274   2.343       .  S
C265        C871   1.482       .  S
C266        C887   1.428       .  S
C267        C865   1.499       .  S
C268        C875   1.435       .  S
C269       C1001   1.497       .  S
C270       C1067   1.424       .  S
C271        C893   1.473       .  S
C272        C996   1.444       .  S
H273        O274   0.966       .  S
H275        O276   0.966       .  S
C277        N278   1.372       .  A
C277        N282   1.362       .  A
C277        C908   1.493       .  S
N278        C279   1.372       .  A
C279        N280   1.358       .  A
C279        C861   1.490       .  S
N280        C281   1.353       .  A
C281        N282   1.356       .  A
C281        C860   1.445       .  S
C283        N284   1.353       .  A
C283        N288   1.363       .  A
C283        C857   1.442       .  S
N284        C285   1.357       .  A
C285        N286   1.357       .  A
C285        C881   1.476       .  S
N286        C287   1.354       .  A
C287        N288   1.364       .  A
C287        C911   1.441       .  S
C289        N290   1.369       .  A
C289        N294   1.358       .  A
C289        C853   1.490       .  S
N290        C291   1.366       .  A
C291        N292   1.360       .  A
C291        C928   1.455       .  S
N292        C293   1.359       .  A
C293        N294   1.359       .  A
C293        C872   1.484       .  S
C295        N296   1.358       .  A
C295        N300   1.358       .  A
C295        C876   1.436       .  S
N296        C297   1.360       .  A
C297        N298   1.359       .  A
C297        C842   1.481       .  S
N298        C299   1.353       .  A
C299        N300   1.356       .  A
C299        C851   1.435       .  S
O301       Zr337   2.445       .  S
O301        C312   1.291       .  A
O302       Zr336   2.425       .  S
O302        C313   1.288       .  A
O303       Zr309   2.460       .  S
O303        C314   1.296       .  A
O304       Zr309   2.450       .  S
O304        C315   1.294       .  A
O305       Zr339   2.437       .  S
O305        C315   1.291       .  A
O306       Zr338   2.437       .  S
O306        C314   1.293       .  A
O307       Zr309   2.418       .  S
O307        C313   1.287       .  A
O308       Zr309   2.471       .  S
O308        C312   1.298       .  A
Zr309       O310   2.353       .  S
Zr309       O311   2.332       .  S
Zr309       O319   2.332       .  S
Zr309       O317   2.355       .  S
O310       Zr336   2.336       .  S
O310       Zr339   2.343       .  S
O311       Zr337   2.335       .  S
O311       Zr338   2.353       .  S
C312       C1150   1.496       .  S
C313        C974   1.418       .  S
C314        C977   1.481       .  S
C315        C852   1.435       .  S
H316        O317   0.965       .  S
O317       Zr336   2.348       .  S
O317       Zr338   2.351       .  S
H318        O319   0.965       .  S
O319       Zr337   2.326       .  S
O319       Zr339   2.355       .  S
O320       Zr336   2.440       .  S
O320        C343   1.290       .  A
O321       Zr337   2.424       .  S
O321        C344   1.288       .  A
O322       Zr338   2.474       .  S
O322        C345   1.298       .  A
O323       Zr339   2.486       .  S
O323        C346   1.301       .  A
O324       Zr339   2.474       .  S
O324        C347   1.298       .  A
O325       Zr338   2.471       .  S
O325        C348   1.299       .  A
O326       Zr340   2.423       .  S
O326        C349   1.288       .  A
O327       Zr340   2.416       .  S
O327        C350   1.287       .  A
O328       Zr338   2.450       .  S
O328        C349   1.293       .  A
O329       Zr339   2.451       .  S
O329        C350   1.296       .  A
O330       Zr336   2.417       .  S
O330        C345   1.286       .  A
O331       Zr337   2.409       .  S
O331        C348   1.285       .  A
O332       Zr337   2.423       .  S
O332        C347   1.287       .  A
O333       Zr336   2.423       .  S
O333        C346   1.288       .  A
O334       Zr340   2.472       .  S
O334        C343   1.299       .  A
O335       Zr340   2.443       .  S
O335        C344   1.291       .  A
Zr336       O342   2.334       .  S
Zr336       O354   2.334       .  S
Zr337       O341   2.341       .  S
Zr337       O352   2.346       .  S
Zr338       O342   2.344       .  S
Zr338       O352   2.345       .  S
Zr339       O341   2.345       .  S
Zr339       O354   2.348       .  S
Zr340       O341   2.349       .  S
Zr340       O342   2.333       .  S
Zr340       O354   2.337       .  S
Zr340       O352   2.348       .  S
C343        C862   1.494       .  S
C344        C839   1.429       .  S
C345        C858   1.441       .  S
C346        C854   1.489       .  S
C347       C1142   1.444       .  S
C348       C1078   1.475       .  S
C349       C1070   1.431       .  S
C350        C835   1.471       .  S
H351        O352   0.966       .  S
H353        O354   0.965       .  S
C355        N356   1.359       .  A
C355        N360   1.357       .  A
C355        C831   1.473       .  S
N356        C357   1.354       .  A
C357        N358   1.364       .  A
C357        C827   1.483       .  S
N358        C359   1.360       .  A
C359        N360   1.356       .  A
C359        C825   1.441       .  S
C361        N362   1.353       .  A
C361        N366   1.356       .  A
C361        C821   1.430       .  S
N362        C363   1.353       .  A
C363        N364   1.356       .  A
C363        C824   1.427       .  S
N364        C365   1.359       .  A
C365        N366   1.361       .  A
C365        C917   1.480       .  S
C367        N368   1.354       .  A
C367        N372   1.363       .  A
C367        C817   1.477       .  S
N368        C369   1.354       .  A
C369        N370   1.362       .  A
C369        C816   1.441       .  S
N370        C371   1.367       .  A
C371        N372   1.360       .  A
C371        C902   1.493       .  S
C373        N374   1.363       .  A
C373        N378   1.357       .  A
C373        C813   1.443       .  S
N374        C375   1.362       .  A
C375        N376   1.352       .  A
C375        C905   1.439       .  S
N376        C377   1.356       .  A
C377        N378   1.360       .  A
C377        C804   1.478       .  S
O379       Zr415   2.411       .  S
O379        C390   1.287       .  A
O380       Zr414   2.441       .  S
O380        C391   1.292       .  A
O381       Zr387   2.460       .  S
O381        C392   1.297       .  A
O382       Zr387   2.463       .  S
O382        C393   1.295       .  A
O383       Zr417   2.426       .  S
O383        C393   1.287       .  A
O384       Zr416   2.416       .  S
O384        C392   1.287       .  A
O385       Zr387   2.450       .  S
O385        C391   1.294       .  A
O386       Zr387   2.463       .  S
O386        C390   1.298       .  A
Zr387       O388   2.346       .  S
Zr387       O389   2.346       .  S
Zr387       O397   2.344       .  S
Zr387       O395   2.350       .  S
O388       Zr414   2.348       .  S
O388       Zr417   2.325       .  S
O389       Zr415   2.341       .  S
O389       Zr416   2.334       .  S
C390       C1102   1.471       .  S
C391       C1046   1.437       .  S
C392       C1050   1.476       .  S
C393        C814   1.442       .  S
H394        O395   0.966       .  S
O395       Zr414   2.357       .  S
O395       Zr416   2.334       .  S
H396        O397   0.966       .  S
O397       Zr415   2.356       .  S
O397       Zr417   2.333       .  S
O398       Zr414   2.483       .  S
O398        C421   1.301       .  A
O399       Zr415   2.426       .  S
O399        C422   1.288       .  A
O400       Zr416   2.433       .  S
O400        C423   1.289       .  A
O401       Zr417   2.424       .  S
O401        C424   1.288       .  A
O402       Zr417   2.421       .  S
O402        C425   1.287       .  A
O403       Zr416   2.440       .  S
O403        C426   1.290       .  A
O404       Zr418   2.459       .  S
O404        C427   1.294       .  A
O405       Zr418   2.477       .  S
O405        C428   1.300       .  A
O406       Zr416   2.407       .  S
O406        C427   1.284       .  A
O407       Zr417   2.403       .  S
O407        C428   1.284       .  A
O408       Zr414   2.434       .  S
O408        C423   1.290       .  A
O409       Zr415   2.476       .  S
O409        C426   1.300       .  A
O410       Zr415   2.453       .  S
O410        C425   1.293       .  A
O411       Zr414   2.452       .  S
O411        C424   1.295       .  A
O412       Zr418   2.398       .  S
O412        C421   1.284       .  A
O413       Zr418   2.427       .  S
O413        C422   1.289       .  A
Zr414       O420   2.337       .  S
Zr414       O432   2.331       .  S
Zr415       O419   2.344       .  S
Zr415       O430   2.333       .  S
Zr416       O420   2.340       .  S
Zr416       O430   2.338       .  S
Zr417       O419   2.342       .  S
Zr417       O432   2.336       .  S
Zr418       O419   2.334       .  S
Zr418       O420   2.345       .  S
Zr418       O432   2.340       .  S
Zr418       O430   2.344       .  S
C421        C828   1.475       .  S
C422        C802   1.421       .  S
C423        C822   1.430       .  S
C424        C818   1.475       .  S
C425       C1093   1.432       .  S
C426        C956   1.496       .  S
C427        C950   1.428       .  S
C428        C797   1.475       .  S
H429        O430   0.966       .  S
H431        O432   0.965       .  S
C433        N434   1.358       .  A
C433        N438   1.355       .  A
C433        C793   1.471       .  S
N434        C435   1.359       .  A
C435        N436   1.362       .  A
C435        C859   1.445       .  S
N436        C437   1.364       .  A
C437        N438   1.349       .  A
C437        C798   1.476       .  S
C439        N440   1.351       .  A
C439        N444   1.361       .  A
C439        C791   1.428       .  S
N440        C441   1.349       .  A
C441        N442   1.352       .  A
C441        C801   1.421       .  S
N442        C443   1.358       .  A
C443        N444   1.364       .  A
C443        C782   1.483       .  S
C445        N446   1.359       .  A
C445        N450   1.369       .  A
C445        C777   1.492       .  S
N446        C447   1.361       .  A
C447        N448   1.352       .  A
C447        C836   1.471       .  S
N448        C449   1.352       .  A
C449        N450   1.365       .  A
C449        C775   1.444       .  S
C451        N452   1.359       .  A
C451        N456   1.354       .  A
C451        C840   1.430       .  S
N452        C453   1.361       .  A
C453        N454   1.355       .  A
C453        C807   1.478       .  S
N454        C455   1.349       .  A
C455        N456   1.353       .  A
C455        C774   1.421       .  S
C457        N458   1.358       .  A
C457        N462   1.373       .  A
C457        C765   1.490       .  S
N458        C459   1.353       .  A
C459        N460   1.353       .  A
C459        C826   1.441       .  S
N460        C461   1.360       .  A
C461        N462   1.374       .  A
C461        C769   1.493       .  S
C463        N464   1.361       .  A
C463        N468   1.353       .  A
C463        C763   1.439       .  S
N464        C465   1.361       .  A
C465        N466   1.357       .  A
C465        C762   1.439       .  S
N466        C467   1.359       .  A
C467        N468   1.358       .  A
C467        C845   1.481       .  S
O469       Zr505   2.424       .  S
O469        C480   1.289       .  A
O470       Zr504   2.426       .  S
O470        C481   1.289       .  A
O471       Zr477   2.468       .  S
O471        C482   1.297       .  A
O472       Zr477   2.488       .  S
O472        C483   1.302       .  A
O473       Zr507   2.425       .  S
O473        C483   1.288       .  A
O474       Zr506   2.419       .  S
O474        C482   1.286       .  A
O475       Zr477   2.444       .  S
O475        C481   1.292       .  A
O476       Zr477   2.434       .  S
O476        C480   1.294       .  A
Zr477       O478   2.339       .  S
Zr477       O479   2.345       .  S
Zr477       O487   2.353       .  S
Zr477       O485   2.351       .  S
O478       Zr504   2.352       .  S
O478       Zr507   2.340       .  S
O479       Zr505   2.348       .  S
O479       Zr506   2.336       .  S
C480       C1053   1.468       .  S
C481        C975   1.428       .  S
C482        C764   1.437       .  S
C483        C982   1.490       .  S
H484        O485   0.965       .  S
O485       Zr504   2.335       .  S
O485       Zr506   2.336       .  S
H486        O487   0.966       .  S
O487       Zr505   2.342       .  S
O487       Zr507   2.331       .  S
O488       Zr504   2.436       .  S
O488        C511   1.291       .  A
O489       Zr505   2.436       .  S
O489        C512   1.290       .  A
O490       Zr506   2.449       .  S
O490        C513   1.292       .  A
O491       Zr507   2.408       .  S
O491        C514   1.284       .  A
O492       Zr507   2.442       .  S
O492        C515   1.290       .  A
O493       Zr506   2.435       .  S
O493        C516   1.290       .  A
O494       Zr508   2.487       .  S
O494        C517   1.301       .  A
O495       Zr508   2.471       .  S
O495        C518   1.297       .  A
O496       Zr506   2.419       .  S
O496        C517   1.287       .  A
O497       Zr507   2.414       .  S
O497        C518   1.286       .  A
O498       Zr504   2.475       .  S
O498        C513   1.300       .  A
O499       Zr505   2.435       .  S
O499        C516   1.290       .  A
O500       Zr505   2.472       .  S
O500        C515   1.299       .  A
O501       Zr504   2.455       .  S
O501        C514   1.294       .  A
O502       Zr508   2.422       .  S
O502        C511   1.290       .  A
O503       Zr508   2.414       .  S
O503        C512   1.286       .  A
Zr504       O510   2.337       .  S
Zr504       O522   2.345       .  S
Zr505       O509   2.328       .  S
Zr505       O520   2.352       .  S
Zr506       O510   2.334       .  S
Zr506       O520   2.345       .  S
Zr507       O509   2.329       .  S
Zr507       O522   2.352       .  S
Zr508       O509   2.347       .  S
Zr508       O510   2.340       .  S
Zr508       O522   2.348       .  S
Zr508       O520   2.345       .  S
C511        C794   1.467       .  S
C512        C773   1.421       .  S
C513        C770   1.498       .  S
C514        C792   1.427       .  S
C515       C1030   1.496       .  S
C516       C1048   1.430       .  S
C517        C778   1.487       .  S
C518       C1024   1.437       .  S
H519        O520   0.966       .  S
H521        O522   0.966       .  S
C523        N524   1.356       .  A
C523        N528   1.373       .  A
C523        C753   1.487       .  S
N524        C525   1.351       .  A
C525        N526   1.357       .  A
C525        C815   1.442       .  S
N526        C527   1.362       .  A
C527        N528   1.372       .  A
C527        C757   1.496       .  S
C529        N530   1.353       .  A
C529        N534   1.358       .  A
C529        C752   1.428       .  S
N530        C531   1.352       .  A
C531        N532   1.355       .  A
C531        C749   1.429       .  S
N532        C533   1.361       .  A
C533        N534   1.360       .  A
C533        C740   1.484       .  S
O535       Zr571   2.441       .  S
O535        C546   1.290       .  A
O536       Zr570   2.432       .  S
O536        C547   1.289       .  A
O537       Zr543   2.425       .  S
O537        C548   1.289       .  A
O538       Zr543   2.446       .  S
O538        C549   1.293       .  A
O539       Zr573   2.449       .  S
O539        C549   1.294       .  A
O540       Zr572   2.443       .  S
O540        C548   1.292       .  A
O541       Zr543   2.457       .  S
O541        C547   1.294       .  A
O542       Zr543   2.449       .  S
O542        C546   1.296       .  A
Zr543       O544   2.334       .  S
Zr543       O545   2.347       .  S
Zr543       O553   2.338       .  S
Zr543       O551   2.347       .  S
O544       Zr570   2.345       .  S
O544       Zr573   2.343       .  S
O545       Zr571   2.327       .  S
O545       Zr572   2.341       .  S
C546       C1121   1.483       .  S
C547        C940   1.441       .  S
C548        C823   1.427       .  S
C549        C946   1.483       .  S
H550        O551   0.966       .  S
O551       Zr570   2.337       .  S
O551       Zr572   2.358       .  S
H552        O553   0.966       .  S
O553       Zr571   2.342       .  S
O553       Zr573   2.341       .  S
O554       Zr570   2.433       .  S
O554        C577   1.290       .  A
O555       Zr571   2.424       .  S
O555        C578   1.288       .  A
O556       Zr572   2.420       .  S
O556        C579   1.288       .  A
O557       Zr573   2.457       .  S
O557        C580   1.295       .  A
O558       Zr573   2.480       .  S
O558        C581   1.300       .  A
O559       Zr572   2.443       .  S
O559        C582   1.291       .  A
O560       Zr574   2.464       .  S
O560        C583   1.296       .  A
O561       Zr574   2.433       .  S
O561        C584   1.290       .  A
O562       Zr572   2.468       .  S
O562        C583   1.298       .  A
O563       Zr573   2.425       .  S
O563        C584   1.289       .  A
O564       Zr570   2.447       .  S
O564        C579   1.294       .  A
O565       Zr571   2.427       .  S
O565        C582   1.288       .  A
O566       Zr571   2.409       .  S
O566        C581   1.286       .  A
O567       Zr570   2.439       .  S
O567        C580   1.291       .  A
O568       Zr574   2.474       .  S
O568        C577   1.300       .  A
O569       Zr574   2.444       .  S
O569        C578   1.292       .  A
Zr570       O576   2.347       .  S
Zr570       O588   2.336       .  S
Zr571       O575   2.341       .  S
Zr571       O586   2.340       .  S
Zr572       O576   2.346       .  S
Zr572       O586   2.334       .  S
Zr573       O575   2.345       .  S
Zr573       O588   2.356       .  S
Zr574       O575   2.357       .  S
Zr574       O576   2.338       .  S
Zr574       O588   2.340       .  S
Zr574       O586   2.348       .  S
C577        C733   1.491       .  S
C578        C751   1.428       .  S
C579        C832   1.470       .  S
C580        C737   1.442       .  S
C581       C1098   1.478       .  S
C582       C1115   1.432       .  S
C583        C758   1.501       .  S
C584       C1092   1.421       .  S
H585        O586   0.967       .  S
H587        O588   0.965       .  S
C589        N590   1.364       .  A
C589        N594   1.372       .  A
C589        C866   1.498       .  S
N590        C591   1.360       .  A
C591        N592   1.351       .  A
C591        C776   1.446       .  S
N592        C593   1.357       .  A
C593        N594   1.370       .  A
C593        C729   1.486       .  S
C595        N596   1.352       .  A
C595        N600   1.353       .  A
C595        C870   1.428       .  S
N596        C597   1.353       .  A
C597        N598   1.361       .  A
C597        C728   1.433       .  S
N598        C599   1.363       .  A
C599        N600   1.359       .  A
C599        C743   1.485       .  S
C601        N602   1.371       .  A
C601        N606   1.361       .  A
C601        C723   1.489       .  S
N602        C603   1.372       .  A
C603        N604   1.357       .  A
C603        C734   1.487       .  S
N604        C605   1.352       .  A
C605        N606   1.354       .  A
C605        C892   1.441       .  S
C607        N608   1.360       .  A
C607        N612   1.358       .  A
C607        C738   1.443       .  S
N608        C609   1.359       .  A
C609        N610   1.354       .  A
C609        C721   1.435       .  S
N610        C611   1.357       .  A
C611        N612   1.362       .  A
C611        C785   1.483       .  S
O613       Zr649   2.449       .  S
O613        C624   1.293       .  A
O614       Zr648   2.457       .  S
O614        C625   1.294       .  A
O615       Zr621   2.451       .  S
O615        C626   1.294       .  A
O616       Zr621   2.443       .  S
O616        C627   1.292       .  A
O617       Zr651   2.441       .  S
O617        C627   1.291       .  A
O618       Zr650   2.456       .  S
O618        C626   1.295       .  A
O619       Zr621   2.437       .  S
O619        C625   1.290       .  A
O620       Zr621   2.449       .  S
O620        C624   1.295       .  A
Zr621       O622   2.347       .  S
Zr621       O623   2.344       .  S
Zr621       O631   2.342       .  S
Zr621       O629   2.343       .  S
O622       Zr648   2.334       .  S
O622       Zr651   2.342       .  S
O623       Zr649   2.343       .  S
O623       Zr650   2.348       .  S
C624       C1125   1.487       .  S
C625        C998   1.439       .  S
C626       C1005   1.488       .  S
C627        C761   1.438       .  S
H628        O629   0.966       .  S
O629       Zr648   2.360       .  S
O629       Zr650   2.344       .  S
H630        O631   0.966       .  S
O631       Zr649   2.344       .  S
O631       Zr651   2.350       .  S
O632       Zr648   2.463       .  S
O632        C655   1.296       .  A
O633       Zr649   2.423       .  S
O633        C656   1.288       .  A
O634       Zr650   2.453       .  S
O634        C657   1.294       .  A
O635       Zr651   2.443       .  S
O635        C658   1.292       .  A
O636       Zr651   2.436       .  S
O636        C659   1.290       .  A
O637       Zr650   2.461       .  S
O637        C660   1.295       .  A
O638       Zr652   2.452       .  S
O638        C661   1.294       .  A
O639       Zr652   2.457       .  S
O639        C662   1.294       .  A
O640       Zr650   2.440       .  S
O640        C661   1.291       .  A
O641       Zr651   2.454       .  S
O641        C662   1.296       .  A
O642       Zr648   2.431       .  S
O642        C657   1.289       .  A
O643       Zr649   2.468       .  S
O643        C660   1.298       .  A
O644       Zr649   2.455       .  S
O644        C659   1.294       .  A
O645       Zr648   2.475       .  S
O645        C658   1.300       .  A
O646       Zr652   2.457       .  S
O646        C655   1.297       .  A
O647       Zr652   2.452       .  S
O647        C656   1.294       .  A
Zr648       O654   2.352       .  S
Zr648       O666   2.352       .  S
Zr649       O653   2.350       .  S
Zr649       O664   2.347       .  S
Zr650       O654   2.352       .  S
Zr650       O664   2.342       .  S
Zr651       O653   2.338       .  S
Zr651       O666   2.345       .  S
Zr652       O653   2.343       .  S
Zr652       O654   2.342       .  S
Zr652       O666   2.356       .  S
Zr652       O664   2.351       .  S
C655        C724   1.497       .  S
C656        C727   1.432       .  S
C657        C722   1.435       .  S
C658        C766   1.497       .  S
C659       C1118   1.440       .  S
C660       C1026   1.500       .  S
C661       C1022   1.440       .  S
C662        C730   1.496       .  S
H663        O664   0.965       .  S
H665        O666   0.965       .  S
O667       Zr703   2.454       .  S
O667        C678   1.294       .  A
O668       Zr702   2.446       .  S
O668        C679   1.292       .  A
O669       Zr675   2.476       .  S
O669        C680   1.299       .  A
O670       Zr675   2.437       .  S
O670        C681   1.291       .  A
O671       Zr705   2.449       .  S
O671        C681   1.293       .  A
O672       Zr704   2.413       .  S
O672        C680   1.287       .  A
O673       Zr675   2.425       .  S
O673        C679   1.288       .  A
O674       Zr675   2.456       .  S
O674        C678   1.296       .  A
Zr675       O676   2.357       .  S
Zr675       O677   2.333       .  S
Zr675       O685   2.348       .  S
Zr675       O683   2.346       .  S
O676       Zr702   2.331       .  S
O676       Zr705   2.342       .  S
O677       Zr703   2.337       .  S
O677       Zr704   2.349       .  S
C678       C1038   1.493       .  S
C679        C937   1.429       .  S
C680        C942   1.477       .  S
C681        C926   1.436       .  S
H682        O683   0.966       .  S
O683       Zr702   2.347       .  S
O683       Zr704   2.338       .  S
H684        O685   0.966       .  S
O685       Zr703   2.341       .  S
O685       Zr705   2.362       .  S
O686       Zr702   2.433       .  S
O686        C709   1.291       .  A
O687       Zr703   2.425       .  S
O687        C710   1.288       .  A
O688       Zr704   2.439       .  S
O688        C711   1.291       .  A
O689       Zr705   2.448       .  S
O689        C712   1.293       .  A
O690       Zr705   2.422       .  S
O690        C713   1.288       .  A
O691       Zr704   2.421       .  S
O691        C714   1.288       .  A
O692       Zr706   2.436       .  S
O692        C715   1.290       .  A
O693       Zr706   2.423       .  S
O693        C716   1.288       .  A
O694       Zr704   2.446       .  S
O694        C715   1.292       .  A
O695       Zr705   2.483       .  S
O695        C716   1.301       .  A
O696       Zr702   2.421       .  S
O696        C711   1.287       .  A
O697       Zr703   2.456       .  S
O697        C714   1.296       .  A
O698       Zr703   2.438       .  S
O698        C713   1.290       .  A
O699       Zr702   2.447       .  S
O699        C712   1.293       .  A
O700       Zr706   2.439       .  S
O700        C709   1.293       .  A
O701       Zr706   2.443       .  S
O701        C710   1.291       .  A
Zr702       O708   2.347       .  S
Zr702       O720   2.341       .  S
Zr703       O707   2.348       .  S
Zr703       O718   2.346       .  S
Zr704       O708   2.330       .  S
Zr704       O718   2.330       .  S
Zr705       O707   2.338       .  S
Zr705       O720   2.330       .  S
Zr706       O707   2.337       .  S
Zr706       O708   2.338       .  S
Zr706       O720   2.348       .  S
Zr706       O718   2.336       .  S
C709        C897   1.471       .  S
C710        C750   1.429       .  S
C711        C889   1.425       .  S
C712        C934   1.482       .  S
C713       C1033   1.425       .  S
C714       C1013   1.473       .  S
C715       C1009   1.438       .  S
C716        C754   1.490       .  S
H717        O718   0.965       .  S
H719        O720   0.966       .  S
C721        C722   1.206       .  T
C723        C724   1.350       .  D
C723        H725   1.087       .  S
C724        H726   1.086       .  S
C727        C728   1.205       .  T
C729        C730   1.348       .  D
C729        H731   1.087       .  S
C730        H732   1.086       .  S
C733        C734   1.343       .  D
C733        H735   1.087       .  S
C734        H736   1.087       .  S
C737        C738   1.210       .  T
C739        C740   1.404       .  A
C739        C744   1.394   1_554  A
C739        H745   1.083       .  S
C740        C741   1.408       .  A
C741        C742   1.401   1_554  A
C741        H746   1.083       .  S
C742        C743   1.406       .  A
C742        H747   1.083       .  S
C743        C744   1.406       .  A
C744        H748   1.083       .  S
C749        C750   1.202       .  T
C751        C752   1.202       .  T
C753        C754   1.340       .  D
C753        H755   1.087       .  S
C754        H756   1.087       .  S
C757        C758   1.351       .  D
C757        H759   1.087       .  S
C758        H760   1.086       .  S
C761        C762   1.208       .  T
C763        C764   1.208       .  T
C765        C766   1.346       .  D
C765        H767   1.087       .  S
C766        H768   1.087       .  S
C769        C770   1.347       .  D
C769        H771   1.087       .  S
C770        H772   1.086       .  S
C773        C774   1.198       .  T
C775        C776   1.212       .  T
C777        C778   1.343       .  D
C777        H779   1.086       .  S
C778        H780   1.087       .  S
C781        C782   1.408       .  A
C781        C786   1.396   1_565  A
C781        H787   1.083       .  S
C782        C783   1.404       .  A
C783        C784   1.399   1_565  A
C783        H788   1.083       .  S
C784        C785   1.409       .  A
C784        H789   1.083       .  S
C785        C786   1.403       .  A
C786        H790   1.083       .  S
C791        C792   1.202       .  T
C793        C794   1.345       .  D
C793        H795   1.086       .  S
C794        H796   1.087       .  S
C797        C798   1.335       .  D
C797        H799   1.088       .  S
C798        H800   1.087       .  S
C801        C802   1.198       .  T
C803        C804   1.408       .  A
C803        C808   1.397   1_554  A
C803        H809   1.083       .  S
C804        C805   1.402       .  A
C805        C806   1.393   1_554  A
C805        H810   1.083       .  S
C806        C807   1.408       .  A
C806        H811   1.083       .  S
C807        C808   1.403       .  A
C808        H812   1.083       .  S
C813        C814   1.210       .  T
C815        C816   1.209       .  T
C817        C818   1.340       .  D
C817        H819   1.087       .  S
C818        H820   1.087       .  S
C821        C822   1.203       .  T
C823        C824   1.201       .  T
C825        C826   1.209       .  T
C827        C828   1.338       .  D
C827        H829   1.087       .  S
C828        H830   1.087       .  S
C831        C832   1.341       .  D
C831        H833   1.086       .  S
C832        H834   1.087       .  S
C835        C836   1.337       .  D
C835        H837   1.087       .  S
C836        H838   1.087       .  S
C839        C840   1.203       .  T
C841        C842   1.406       .  A
C841        C846   1.399       .  A
C841        H847   1.083       .  S
C842        C843   1.405       .  A
C843        C844   1.394       .  A
C843        H848   1.083       .  S
C844        C845   1.405   1_455  A
C844        H849   1.083       .  S
C845        C846   1.407   1_655  A
C846        H850   1.083   1_455  S
C851        C852   1.206       .  T
C853        C854   1.342       .  D
C853        H855   1.086       .  S
C854        H856   1.087       .  S
C857        C858   1.210       .  T
C859        C860   1.211       .  T
C861        C862   1.345       .  D
C861        H863   1.087       .  S
C862        H864   1.087       .  S
C865        C866   1.349       .  D
C865        H867   1.087       .  S
C866        H868   1.086       .  S
C869        C870   1.201       .  T
C871        C872   1.347       .  D
C871        H873   1.087       .  S
C872        H874   1.086       .  S
C875        C876   1.206       .  T
C877        C878   1.404       .  A
C877        C882   1.393   1_545  A
C877        H883   1.083       .  S
C878        C879   1.406       .  A
C879        C880   1.395   1_545  A
C879        H884   1.083       .  S
C880        C881   1.405       .  A
C880        H885   1.083       .  S
C881        C882   1.405       .  A
C882        H886   1.083       .  S
C887        C888   1.202       .  T
C889        C890   1.200       .  T
C891        C892   1.209       .  T
C893        C894   1.338       .  D
C893        H895   1.087       .  S
C894        H896   1.087       .  S
C897        C898   1.344       .  D
C897        H899   1.087       .  S
C898        H900   1.087       .  S
C901        C902   1.344       .  D
C901        H903   1.087       .  S
C902        H904   1.086       .  S
C905        C906   1.208       .  T
C907        C908   1.349       .  D
C907        H909   1.086       .  S
C908        H910   1.087       .  S
C911        C912   1.209       .  T
C913        C914   1.406       .  A
C913        C918   1.393       .  A
C913        H919   1.083       .  S
C914        C915   1.405       .  A
C915        C916   1.400       .  A
C915        H920   1.083       .  S
C916        C917   1.407   1_455  A
C916        H921   1.083   1_455  S
C917        C918   1.403   1_655  A
C918        H922   1.083   1_455  S
C923        C924   1.204       .  T
C925        C926   1.206       .  T
C927        C928   1.218       .  T
C929        C930   1.339       .  D
C929        H931   1.087       .  S
C930        H932   1.087       .  S
C933        C934   1.350       .  D
C933        H935   1.086       .  S
C934        H936   1.087       .  S
C937        C938   1.202       .  T
C939        C940   1.210       .  T
C941        C942   1.342       .  D
C941        H943   1.086       .  S
C942        H944   1.087       .  S
C945        C946   1.348       .  D
C945        H947   1.086       .  S
C946        H948   1.087       .  S
C949        C950   1.202       .  T
C951        C952   1.204       .  T
C953        C954   1.214   1_565  T
C955        C956   1.344       .  D
C955        H957   1.087       .  S
C956        H958   1.086       .  S
C959        C960   1.354       .  D
C959        H961   1.086       .  S
C960        H962   1.086       .  S
C963        C964   1.402   1_655  A
C963        C968   1.392       .  A
C963        H969   1.083       .  S
C964        C965   1.407       .  A
C965        C966   1.396       .  A
C965        H970   1.083       .  S
C966        C967   1.404       .  A
C966        H971   1.083       .  S
C967        C968   1.407   1_455  A
C968        H972   1.083       .  S
C973        C974   1.196       .  T
C975        C976   1.202       .  T
C977        C978   1.350       .  D
C977        H979   1.087       .  S
C978        H980   1.086       .  S
C981        C982   1.341       .  D
C981        H983   1.087       .  S
C982        H984   1.087       .  S
C985        C986   1.409   1_655  A
C985        C990   1.399       .  A
C985        H991   1.083       .  S
C986        C987   1.404       .  A
C987        C988   1.399       .  A
C987        H992   1.083       .  S
C988        C989   1.410       .  A
C988        H993   1.083       .  S
C989        C990   1.404   1_455  A
C990        H994   1.083       .  S
C995        C996   1.211       .  T
C997        C998   1.208       .  T
C999       C1000   1.222   1_565  T
C1001      C1002   1.346       .  D
C1001      H1003   1.087       .  S
C1002      H1004   1.086       .  S
C1005      C1006   1.350       .  D
C1005      H1007   1.087       .  S
C1006      H1008   1.086       .  S
C1009      C1010   1.208       .  T
C1011      C1012   1.202       .  T
C1013      C1014   1.341       .  D
C1013      H1015   1.087       .  S
C1014      H1016   1.086       .  S
C1017      C1018   1.341       .  D
C1017      H1019   1.086       .  S
C1018      H1020   1.087       .  S
C1021      C1022   1.209       .  T
C1023      C1024   1.208       .  T
C1025      C1026   1.348       .  D
C1025      H1027   1.087       .  S
C1026      H1028   1.086       .  S
C1029      C1030   1.345       .  D
C1029      H1031   1.087       .  S
C1030      H1032   1.086       .  S
C1033      C1034   1.200       .  T
C1035      C1036   1.199       .  T
C1037      C1038   1.348       .  D
C1037      H1039   1.087       .  S
C1038      H1040   1.086       .  S
C1041      C1042   1.337       .  D
C1041      H1043   1.087       .  S
C1042      H1044   1.087       .  S
C1045      C1046   1.207       .  T
C1047      C1048   1.203       .  T
C1049      C1050   1.340       .  D
C1049      H1051   1.087       .  S
C1050      H1052   1.087       .  S
C1053      C1054   1.339       .  D
C1053      H1055   1.087       .  S
C1054      H1056   1.087       .  S
C1057      C1058   1.404       .  A
C1057      C1062   1.395       .  A
C1057      H1063   1.083       .  S
C1058      C1059   1.407   1_565  A
C1059      C1060   1.395       .  A
C1059      H1064   1.083       .  S
C1060      C1061   1.405   1_545  A
C1060      H1065   1.083       .  S
C1061      C1062   1.406       .  A
C1062      H1066   1.083       .  S
C1067      C1068   1.199       .  T
C1069      C1070   1.204       .  T
C1071      C1072   1.212   1_556  T
C1073      C1074   1.347       .  D
C1073      H1075   1.086       .  S
C1074      H1076   1.087       .  S
C1077      C1078   1.337       .  D
C1077      H1079   1.087       .  S
C1078      H1080   1.087       .  S
C1081      C1082   1.409   1_545  A
C1081      C1086   1.396       .  A
C1081      H1087   1.083       .  S
C1082      C1083   1.403       .  A
C1083      C1084   1.396       .  A
C1083      H1088   1.083       .  S
C1084      C1085   1.409       .  A
C1084      H1089   1.083       .  S
C1085      C1086   1.402   1_565  A
C1086      H1090   1.083       .  S
C1091      C1092   1.198       .  T
C1093      C1094   1.204       .  T
C1095      C1096   1.209   1_554  T
C1097      C1098   1.340       .  D
C1097      H1099   1.086       .  S
C1098      H1100   1.087       .  S
C1101      C1102   1.339       .  D
C1101      H1103   1.086       .  S
C1102      H1104   1.087       .  S
C1105      C1106   1.408   1_554  A
C1105      C1110   1.395       .  A
C1105      H1111   1.083       .  S
C1106      C1107   1.406       .  A
C1107      C1108   1.402       .  A
C1107      H1112   1.083       .  S
C1108      C1109   1.410   1_556  A
C1108      H1113   1.083       .  S
C1109      C1110   1.403       .  A
C1110      H1114   1.083       .  S
C1115      C1116   1.204       .  T
C1117      C1118   1.209       .  T
C1119      C1120   1.204       .  T
C1121      C1122   1.341       .  D
C1121      H1123   1.086       .  S
C1122      H1124   1.087       .  S
C1125      C1126   1.346       .  D
C1125      H1127   1.087       .  S
C1126      H1128   1.087       .  S
C1129      C1130   1.404       .  A
C1129      C1134   1.395       .  A
C1129      H1135   1.083       .  S
C1130      C1131   1.406   1_556  A
C1131      C1132   1.394       .  A
C1131      H1136   1.083       .  S
C1132      C1133   1.405   1_554  A
C1132      H1137   1.083       .  S
C1133      C1134   1.406       .  A
C1134      H1138   1.083       .  S
C1139      C1140   1.209       .  T
C1141      C1142   1.212       .  T
C1143      C1144   1.206       .  T
C1145      C1146   1.342       .  D
C1145      H1147   1.087       .  S
C1146      H1148   1.086       .  S
C1149      C1150   1.346       .  D
C1149      H1151   1.087       .  S
C1150      H1152   1.087       .  S
