geometry optimzed in LAMMPS
_audit_creation_date              2020-11-30 
_audit_creation_method            'lammps2cif' 
_symmetry_space_group_name_H-M    'P1' 
_symmetry_Int_Tables_number       1 
_symmetry_cell_setting            triclinic 
loop_ 
_symmetry_equiv_pos_as_xyz 
  x,y,z 
_cell_length_a                    35.18602599 
_cell_length_b                    35.188222951234295 
_cell_length_c                    86.44312823247607 
_cell_angle_alpha                 89.93720069625367 
_cell_angle_beta                  89.99524743272487 
_cell_angle_gamma                 120.05099309246735 
loop_ 
_atom_site_label 
_atom_site_type_symbol 
_atom_site_fract_x 
_atom_site_fract_y 
_atom_site_fract_z 
_atom_site_charge 
C1          C  0.64257232  0.10255098  0.71063057     0.80200
N2          N  0.60976290  0.06080716  0.70813417    -0.78100
C3          C  0.61342522  0.03551227  0.69706394     0.82600
N4          N  0.65036099  0.05252639  0.68820802    -0.78100
C5          C  0.68367925  0.09431488  0.69057074     0.82700
N6          N  0.67986421  0.11896093  0.70196897    -0.79800
C7          C  0.76577601  0.10569436  0.66092440     0.80200
N8          N  0.79983398  0.14564647  0.66469313    -0.78100
C9          C  0.79738049  0.16874665  0.67677270     0.82600
N10         N  0.75956007  0.15200629  0.68507611    -0.78100
C11         C  0.72447847  0.11226657  0.68130157     0.82700
N12         N  0.72772156  0.08905014  0.66919645    -0.79800
C13         C  0.48174744  0.75746318  0.83615366     0.80200
N14         N  0.49952931  0.73917636  0.84539729    -0.78100
C15         C  0.51973225  0.75883942  0.85887895     0.82600
N16         N  0.52235924  0.79730060  0.86312534    -0.78100
C17         C  0.50416475  0.81559191  0.85409797     0.82700
N18         N  0.48441890  0.79571772  0.84063690    -0.79800
C19         C  0.58190569  0.74284137  0.89033415     0.80200
N20         N  0.56407715  0.76117207  0.88114320    -0.78100
C21         C  0.53880112  0.73869782  0.86879470     0.82600
N22         N  0.53146498  0.69765968  0.86562573    -0.78100
C23         C  0.54862804  0.67889308  0.87492981     0.82700
N24         N  0.57403403  0.70183449  0.88707566    -0.79800
C25         C  0.82143197  0.42249597  0.50040602     0.80200
N26         N  0.84205781  0.40684833  0.50952384    -0.78100
C27         C  0.87109478  0.43313756  0.52054122     0.82600
N28         N  0.87910402  0.47492698  0.52241753    -0.78100
C29         C  0.85882602  0.49080495  0.51327911     0.82700
N30         N  0.83006021  0.46420113  0.50243151    -0.79800
C31         C  0.93999348  0.42621309  0.55166414     0.80200
N32         N  0.92057218  0.44216180  0.54210277    -0.78100
C33         C  0.89253463  0.41608316  0.53081545     0.82600
N34         N  0.88377123  0.37391192  0.52926262    -0.78100
C35         C  0.90274753  0.35767390  0.53891862     0.82700
N36         N  0.93111709  0.38433372  0.54981653    -0.79800
C37         C  0.44442451  0.42797153  0.99992852     0.80200
N38         N  0.47504916  0.47034372  0.00271230    -0.78100
C39         C  0.47169243  0.49194778  0.01512622     0.82600
N40         N  0.43671508  0.47093391  0.02476447    -0.78100
C41         C  0.40539616  0.42860130  0.02201989     0.82700
N42         N  0.40924366  0.40719342  0.00953451    -0.79800
C43         C  0.33121824  0.40497218  0.05565834     0.80200
N44         N  0.29837390  0.36423076  0.05198194    -0.78100
C45         C  0.29982674  0.34403421  0.03883562     0.82600
N46         N  0.33483029  0.36488160  0.02920644    -0.78100
C47         C  0.36790512  0.40594967  0.03263215     0.82700
N48         N  0.36584046  0.42607539  0.04580830    -0.79800
C49         C  0.97974070  0.76499538  0.37769385     0.80200
N50         N  0.94543157  0.72503831  0.37386795    -0.78100
C51         C  0.94795325  0.70178296  0.36177942     0.82600
N52         N  0.98535098  0.71912095  0.35325658    -0.78100
C53         C  0.01999513  0.75915282  0.35685162     0.82700
N54         N  0.01705935  0.78197517  0.36906985    -0.79800
C55         C  0.10042232  0.77130025  0.32673980     0.80200
N56         N  0.06295601  0.75478689  0.33524628    -0.78100
C57         C  0.06062914  0.77723496  0.34768167     0.82600
N58         N  0.09627368  0.81605828  0.35174794    -0.78100
C59         C  0.13422767  0.83225435  0.34356174     0.82700
N60         N  0.13590515  0.80987059  0.33103942    -0.79800
C61         C  0.17018403  0.09836483  0.16469403     0.80200
N62         N  0.17634300  0.13830376  0.16872785    -0.78100
C63         C  0.20015181  0.15984307  0.18137322     0.82600
N64         N  0.21897178  0.14149588  0.19003608    -0.78100
C65         C  0.21328826  0.10148646  0.18614890     0.82700
N66         N  0.18883671  0.08001331  0.17348856    -0.79800
C67         C  0.26989872  0.08110597  0.21853534     0.80200
N68         N  0.25485378  0.10134319  0.20895832    -0.78100
C69         C  0.23159762  0.08055776  0.19604844     0.82600
N70         N  0.22385827  0.03956996  0.19266655    -0.78100
C71         C  0.23937004  0.01948024  0.20206837     0.82700
N72         N  0.26215595  0.04034556  0.21495516    -0.79800
C73         C  0.04140686  0.69748989  0.83394637     0.80200
N74         N  0.00097752  0.66332806  0.83720879    -0.78100
C75         C  0.97576224  0.66624332  0.84847926     0.82600
N76         N  0.99155497  0.70387323  0.85684102    -0.78100
C77         C  0.03204898  0.73858059  0.85366592     0.82700
N78         N  0.05668627  0.73538614  0.84209436    -0.79800
C79         C  0.04067519  0.82443541  0.88095426     0.80200
N80         N  0.08255507  0.85644867  0.87810426    -0.78100
C81         C  0.10798880  0.85105925  0.86752216     0.82600
N82         N  0.09097025  0.81257880  0.85975114    -0.78100
C83         C  0.04921666  0.77985961  0.86242438     0.82700
N84         N  0.02413569  0.78565116  0.87316326    -0.79800
C85         C  0.70386533  0.63000405  0.66134819     0.80200
N86         N  0.66147181  0.61880023  0.66393255    -0.78100
C87         C  0.63956966  0.59549837  0.67664803     0.82600
N88         N  0.66086290  0.58371604  0.68707812    -0.78100
C89         C  0.70336021  0.59454462  0.68458728     0.82700
N90         N  0.72459485  0.61761835  0.67170391    -0.79800
C91         C  0.72655360  0.54237537  0.71785075     0.80200
N92         N  0.70503214  0.55518648  0.70794194    -0.78100
C93         C  0.72672465  0.58179368  0.69572727     0.82600
N94         N  0.77016346  0.59588579  0.69358381    -0.78100
C95         C  0.79217513  0.58426480  0.70369658     0.82700
N96         N  0.76996763  0.55726381  0.71567198    -0.79800
C97         C  0.39008970  0.35774298  0.50282747     0.80200
N98         N  0.40559725  0.39484095  0.51144210    -0.78100
C99         C  0.38049097  0.39751415  0.52290032     0.82600
N100        N  0.33948159  0.36306960  0.52552677    -0.78100
C101        C  0.32359834  0.32597864  0.51685761     0.82700
N102        N  0.34902999  0.32386965  0.50549245    -0.79800
C103        C  0.38952704  0.47855718  0.55232550     0.80200
N104        N  0.37367075  0.44065371  0.54408631    -0.78100
C105        C  0.39747874  0.43792009  0.53213906     0.82600
N106        N  0.43714620  0.47313100  0.52854784    -0.78100
C107        C  0.45299774  0.51101051  0.53668662     0.82700
N108        N  0.42908916  0.51349778  0.54854599    -0.79800
C109        C  0.36994357  0.97630906  0.99896080     0.80200
N110        N  0.39140456  0.96442896  0.00927047    -0.78100
C111        C  0.36969376  0.93982595  0.02188281     0.82600
N112        N  0.32674303  0.92743788  0.02408285    -0.78100
C113        C  0.30510333  0.93852228  0.01367092     0.82700
N114        N  0.32700555  0.96334156  0.00122788    -0.79800
C115        C  0.38877233  0.89242392  0.05718040     0.80200
N116        N  0.42949005  0.89870723  0.05446658    -0.78100
C117        C  0.45176688  0.91861310  0.04129197     0.82600
N118        N  0.43258307  0.93239979  0.03068251    -0.78100
C119        C  0.39189814  0.92671488  0.03337829     0.82700
N120        N  0.37023434  0.90658889  0.04659701    -0.79800
C121        C  0.04957989  0.19564597  0.38173741     0.80200
N122        N  0.09162784  0.20600827  0.37917391    -0.78100
C123        C  0.11528187  0.23261979  0.36735330     0.82600
N124        N  0.09594791  0.24842023  0.35766572    -0.78100
C125        C  0.05369439  0.23858361  0.36017394     0.82700
N126        N  0.03076128  0.21254342  0.37234053    -0.79800
C127        C  0.03655236  0.29732777  0.32779731     0.80200
N128        N  0.05527075  0.28063413  0.33731596    -0.78100
C129        C  0.03313624  0.25656411  0.34991052     0.82600
N130        N  0.99243115  0.25012833  0.35314063    -0.78100
C131        C  0.97391316  0.26766191  0.34385279     0.82700
N132        N  0.99617800  0.29096923  0.33118236    -0.79800
C133        C  0.73220322  0.13344540  0.22591432     0.80200
N134        N  0.77419589  0.16566684  0.22339164    -0.78100
C135        C  0.79682447  0.16464835  0.21085971     0.82600
N136        N  0.77667648  0.13085279  0.20063993    -0.78100
C137        C  0.73464446  0.09802141  0.20314308     0.82700
N138        N  0.71249349  0.09956562  0.21578519    -0.79800
C139        C  0.71390367  0.02809730  0.16854780     0.80200
N140        N  0.73413864  0.06116013  0.17898263    -0.78100
C141        C  0.71279304  0.06155065  0.19205014     0.82600
N142        N  0.67103007  0.02832674  0.19471938    -0.78100
C143        C  0.65096919  0.99483213  0.18442967     0.82700
N144        N  0.67255368  0.99485865  0.17144723    -0.79800
C145        C  0.49673562  0.70328065  0.32941988     0.80200
N146        N  0.51081296  0.73614485  0.34002495    -0.78100
C147        C  0.53087053  0.73416192  0.35326657     0.82600
N148        N  0.53569222  0.69855960  0.35595798    -0.78100
C149        C  0.52042952  0.66506582  0.34554857     0.82700
N150        N  0.50164003  0.66826466  0.33236681    -0.79800
C151        C  0.58859082  0.80475772  0.38704990     0.80200
N152        N  0.57202092  0.77073907  0.37688628    -0.78100
C153        C  0.54807493  0.77072306  0.36449591     0.82600
N154        N  0.54112433  0.80517936  0.36232418    -0.78100
C155        C  0.55785055  0.83946032  0.37242860     0.82700
N156        N  0.58114065  0.83855255  0.38476691    -0.79800
C157        C  0.27634717  0.15187043  0.71555479     0.80200
N158        N  0.25800743  0.11559564  0.70647128    -0.78100
C159        C  0.23735560  0.11505055  0.69314174     0.82600
N160        N  0.23467020  0.15090111  0.68896797    -0.78100
C161        C  0.25257874  0.18727514  0.69802463     0.82700
N162        N  0.27339490  0.18739863  0.71123561    -0.79800
C163        C  0.16685449  0.03440823  0.66374342     0.80200
N164        N  0.18779966  0.07156561  0.67230433    -0.78100
C165        C  0.21584309  0.07508126  0.68373974     0.82600
N166        N  0.22302187  0.04114872  0.68660862    -0.78100
C167        C  0.20264650  0.00406268  0.67791184     0.82700
N168        N  0.17423122  0.00078602  0.66669815    -0.79800
C169        C  0.44577851  0.98525738  0.50018453     0.80200
N170        N  0.48084619  0.98105277  0.50406076    -0.78100
C171        C  0.47883256  0.95577782  0.51624228     0.82600
N172        N  0.44109833  0.93427028  0.52459717    -0.78100
C173        C  0.40596488  0.93888956  0.52100085     0.82700
N174        N  0.40845464  0.96435925  0.50876081    -0.79800
C175        C  0.32565430  0.86969354  0.55113864     0.80200
N176        N  0.29175220  0.87636276  0.54772517    -0.78100
C177        C  0.29412641  0.90286549  0.53590219     0.82600
N178        N  0.33100511  0.92259595  0.52705839    -0.78100
C179        C  0.36542816  0.91642469  0.53027950     0.82700
N180        N  0.36256890  0.89010143  0.54232078    -0.79800
C181        C  0.65896617  0.54923962  0.22176307     0.80200
N182        N  0.62709886  0.55910195  0.21866111    -0.78100
C183        C  0.62927240  0.58240416  0.20585162     0.82600
N184        N  0.66398326  0.59607137  0.19613569    -0.78100
C185        C  0.69608496  0.58628231  0.19906211     0.82700
N186        N  0.69336915  0.56255920  0.21185206    -0.79800
C187        C  0.76620944  0.63628945  0.16476834     0.80200
N188        N  0.73214995  0.62080641  0.17481388    -0.78100
C189        C  0.73324822  0.60155840  0.18830204     0.82600
N190        N  0.76908697  0.59795027  0.19182772    -0.78100
C191        C  0.80371782  0.61356895  0.18184076     0.82700
N192        N  0.80141672  0.63203037  0.16834586    -0.79800
C193        C  0.82650987  0.36674952  0.99782256     0.80200
N194        N  0.84735257  0.40450678  0.00617085    -0.78100
C195        C  0.87456111  0.40800562  0.01797391     0.82600
N196        N  0.88114742  0.37392572  0.02121595    -0.78100
C197        C  0.86077158  0.33631633  0.01287736     0.82700
N198        N  0.83357416  0.33308465  0.00118415    -0.79800
C199        C  0.93861004  0.48380437  0.04955987     0.80200
N200        N  0.91944311  0.44812527  0.04022784    -0.78100
C201        C  0.89577414  0.44751274  0.02769768     0.82600
N202        N  0.89106735  0.48288029  0.02456954    -0.78100
C203        C  0.90982063  0.51872952  0.03394059     0.82700
N204        N  0.93335150  0.51857211  0.04634859    -0.79800
C205        C  0.10119130  0.30823073  0.83237840     0.80200
N206        N  0.06492441  0.28929615  0.84149560    -0.78100
C207        C  0.06356957  0.26582618  0.85419154     0.82600
N208        N  0.09882799  0.26132209  0.85774655    -0.78100
C209        C  0.13519226  0.28017737  0.84860555     0.82700
N210        N  0.13609470  0.30355759  0.83599416    -0.79800
C211        C  0.98776230  0.20754909  0.88668016     0.80200
N212        N  0.95372614  0.21365609  0.88315404    -0.78100
C213        C  0.95459191  0.23607062  0.87030343     0.82600
N214        N  0.99014042  0.25264913  0.86081607    -0.78100
C215        C  0.02464750  0.24679067  0.86425223     0.82700
N216        N  0.02336180  0.22421647  0.87721744    -0.79800
O217        O  0.55540839  0.18759896  0.81682263    -0.80200
O218        O  0.65454814  0.38797491  0.86990440    -0.81700
O219        O  0.62461924  0.34220457  0.81916819    -0.78800
O220        O  0.67592374  0.27544473  0.84805146    -0.77200
O221        O  0.65190600  0.23253421  0.86985083    -0.78900
O222        O  0.56018066  0.34323261  0.81802527    -0.79900
O223        O  0.67826952  0.36501614  0.84913102    -0.81200
O224        O  0.62012683  0.25299996  0.81705036    -0.81500
Eu225      Eu  0.61934977  0.29299526  0.84033170     2.39200
O226        O  0.61648948  0.29140660  0.86753755    -0.89000
O227        O  0.54762228  0.25804049  0.83037023    -0.92600
C228        C  0.59335673  0.21525840  0.81104971     1.02100
C229        C  0.68343227  0.39304915  0.85972207     1.01900
C230        C  0.59951082  0.35540077  0.81327306     1.01800
C231        C  0.68049174  0.25357422  0.85917189     0.99700
H232        H  0.59935219  0.36063362  0.84567547     0.29500
O233        O  0.58367559  0.33042077  0.84908547    -1.01400
H234        H  0.59615222  0.20400837  0.84545608     0.29500
O235        O  0.58151140  0.21938906  0.84903566    -1.03900
O236        O  0.53596017  0.32930059  0.89781821    -0.81200
O237        O  0.43493603  0.12592508  0.84575064    -0.80700
O238        O  0.52384960  0.36774734  0.84737350    -0.79100
O239        O  0.62326722  0.26126646  0.89823657    -0.82500
O240        O  0.55916641  0.14287879  0.87014741    -0.80300
O241        O  0.47060602  0.25280844  0.81625341    -0.79000
O242        O  0.41431119  0.23912891  0.86733726    -0.80500
O243        O  0.46754603  0.17704670  0.89748614    -0.82400
O244        O  0.43821556  0.28169292  0.84554215    -0.79200
O245        O  0.53169556  0.17569834  0.89856022    -0.81800
O246        O  0.56643728  0.38814066  0.86920729    -0.77600
O247        O  0.46644116  0.18564237  0.81701687    -0.77600
O248        O  0.52081490  0.12356099  0.84734755    -0.77200
O249        O  0.62411419  0.32671287  0.89850876    -0.80700
O250        O  0.47028408  0.26486686  0.89753715    -0.80200
O251        O  0.41317412  0.14855891  0.86711955    -0.78500
Eu252      Eu  0.58094057  0.32883110  0.87629823     2.39800
Eu253      Eu  0.50967860  0.18472331  0.83912894     2.39600
Eu254      Eu  0.51206498  0.29570099  0.83900469     2.38400
Eu255      Eu  0.57800611  0.21830131  0.87636127     2.39900
Eu256      Eu  0.47110513  0.22174474  0.87511935     2.39800
O257        O  0.50649161  0.18406629  0.86634918    -0.92900
O258        O  0.50932811  0.29459089  0.86624759    -0.91800
C259        C  0.49758288  0.30271414  0.90336744     1.02300
C260        C  0.40673152  0.12068443  0.85631709     1.01000
C261        C  0.54440313  0.39449561  0.85858603     1.00400
C262        C  0.63487090  0.29926174  0.90406231     1.02400
C263        C  0.53850859  0.11561929  0.85911306     1.01300
C264        C  0.45762685  0.21386675  0.81097210     1.00100
C265        C  0.40949797  0.26087218  0.85620865     1.00200
C266        C  0.49339790  0.16552682  0.90388331     1.02800
H267        H  0.44431091  0.20816915  0.84382432     0.30200
O268        O  0.47390848  0.22246800  0.84784127    -1.05100
H269        H  0.54198919  0.25574192  0.89627179     0.32200
O270        O  0.54273680  0.25599055  0.88517870    -1.07600
O271        O  0.79362888  0.84727503  0.98764600    -0.80200
O272        O  0.89836749  0.05606971  0.03603076    -0.81700
O273        O  0.76494677  0.94321825  0.01645999    -0.78800
O274        O  0.88216187  0.00442032  0.98642459    -0.77200
O275        O  0.94861434  0.00734888  0.98632442    -0.78900
O276        O  0.74676079  0.90292232  0.03884667    -0.79900
O277        O  0.85239988  0.03167943  0.01512309    -0.81200
O278        O  0.79261322  0.91183878  0.98693153    -0.81500
Eu279      Eu  0.83858916  0.95829478  0.00820412     2.39200
O280        O  0.91221443  0.99662259  0.01651418    -0.89000
O281        O  0.80483728  0.88617700  0.01774188    -0.92600
C282        C  0.78060845  0.87280590  0.98202672     1.02100
C283        C  0.87484091  0.06050505  0.02554420     1.01900
C284        C  0.73921320  0.92356757  0.02804730     1.01800
C285        C  0.92109344  0.01821117  0.98096748     0.99700
H286        H  0.82556275  0.97512412  0.03920539     0.29500
O287        O  0.84055923  0.96023994  0.03537494    -1.01400
H288        H  0.87578715  0.92328252  0.98764805     0.29500
O289        O  0.87653772  0.92362563  0.99880557    -1.03900
O290        O  0.95753449  0.00073539  0.06622530    -0.81200
O291        O  0.86254932  0.79575335  0.01551925    -0.80700
O292        O  0.80953313  0.93304851  0.06735425    -0.79100
O293        O  0.01006851  0.03391989  0.01509024    -0.82500
O294        O  0.94976811  0.91778931  0.98522209    -0.80300
O295        O  0.74737353  0.81366517  0.03781959    -0.79000
O296        O  0.87148783  0.84568053  0.06674553    -0.80500
O297        O  0.98867909  0.90567665  0.03721926    -0.82400
O298        O  0.80541254  0.84338873  0.06689961    -0.79200
O299        O  0.00740168  0.94434878  0.01460055    -0.81800
O300        O  0.87257358  0.99979547  0.06602039    -0.77600
O301        O  0.77089175  0.79244270  0.01658157    -0.77600
O302        O  0.88512648  0.85232740  0.98549234    -0.77200
O303        O  0.98765871  0.05741025  0.03608536    -0.80700
O304        O  0.95810735  0.93611618  0.06687800    -0.80200
O305        O  0.90356250  0.81810037  0.03773092    -0.78500
Eu306      Eu  0.91415685  0.99847430  0.04365367     2.39800
Eu307      Eu  0.84293975  0.85159530  0.00848205     2.39600
Eu308      Eu  0.80591843  0.88792900  0.04497123     2.38400
Eu309      Eu  0.94973207  0.96125509  0.00758563     2.39900
Eu310      Eu  0.91557795  0.89079200  0.04474459     2.39800
O311        O  0.91538816  0.88950147  0.01748322    -0.92900
O312        O  0.87890383  0.92659955  0.05367203    -0.91800
C313        C  0.96852583  0.97423194  0.07238872     1.02300
C314        C  0.88394437  0.79053532  0.02666370     1.01000
C315        C  0.83602801  0.97212175  0.07246320     1.00400
C316        C  0.01606983  0.06212500  0.02571457     1.02400
C317        C  0.92265153  0.87980578  0.97944520     1.01300
C318        C  0.74268199  0.78560453  0.02728831     1.00100
C319        C  0.83305497  0.83304800  0.07246417     1.00200
C320        C  0.01479447  0.92432362  0.02572608     1.02800
H321        H  0.82882704  0.82239433  0.03962114     0.30200
O322        O  0.84302353  0.85237167  0.03575744    -1.05100
H323        H  0.98120370  0.97805380  0.03854962     0.32200
O324        O  0.95120870  0.96274822  0.03486389    -1.07600
O325        O  0.62325378  0.33150781  0.39963753    -0.80200
O326        O  0.52696888  0.12514845  0.35008058    -0.81700
O327        O  0.53997266  0.17840171  0.39889550    -0.78800
O328        O  0.65947066  0.23762887  0.37008382    -0.77200
O329        O  0.68122102  0.28201189  0.34866086    -0.78900
O330        O  0.47445092  0.17750031  0.39856073    -0.79900
O331        O  0.57202457  0.14999767  0.37124916    -0.81200
O332        O  0.62316705  0.26650116  0.40056649    -0.81500
Eu333      Eu  0.58591927  0.22389879  0.37733149     2.39200
O334        O  0.58695363  0.22320838  0.35018613    -0.89000
O335        O  0.54803384  0.25941676  0.38532434    -0.92600
C336        C  0.63216045  0.30395172  0.40628481     1.02100
C337        C  0.54885341  0.12033743  0.36116736     1.01900
C338        C  0.50147519  0.16665573  0.40436796     1.01800
C339        C  0.68731900  0.25999064  0.35933762     0.99700
H340        H  0.49797623  0.15566957  0.37191871     0.29500
O341        O  0.51314995  0.18545129  0.36807602    -1.01400
H342        H  0.65244851  0.31281863  0.37190136     0.29500
O343        O  0.62264162  0.29702914  0.36798900    -1.03900
O344        O  0.47397447  0.18313370  0.31775215    -0.81200
O345        O  0.56674257  0.38902878  0.36821602    -0.80700
O346        O  0.41601330  0.14897929  0.36797780    -0.79100
O347        O  0.62600020  0.24938427  0.32000538    -0.82500
O348        O  0.67819084  0.37208037  0.34650978    -0.80300
O349        O  0.47592370  0.26505018  0.39848889    -0.79000
O350        O  0.43781321  0.27789874  0.34678385    -0.80500
O351        O  0.55458576  0.33439708  0.31736219    -0.82400
O352        O  0.41639117  0.23510444  0.36859834    -0.79200
O353        O  0.62105393  0.33719995  0.31791214    -0.81800
O354        O  0.43850609  0.12778304  0.34648122    -0.77600
O355        O  0.54020913  0.33096328  0.39835787    -0.77600
O356        O  0.65601013  0.39261098  0.36830447    -0.77200
O357        O  0.56213207  0.18342987  0.32040110    -0.80700
O358        O  0.46939883  0.24573564  0.31765394    -0.80200
O359        O  0.52690929  0.36664943  0.34573588    -0.78500
Eu360      Eu  0.51459885  0.18454534  0.34092435     2.39800
Eu361      Eu  0.58371703  0.33189511  0.37614089     2.39600
Eu362      Eu  0.47550471  0.22135431  0.37626202     2.38400
Eu363      Eu  0.62231883  0.29558042  0.34064037     2.39900
Eu364      Eu  0.51149522  0.29198833  0.33968119     2.39800
O365        O  0.58391737  0.33035223  0.34899169    -0.92900
O366        O  0.47622154  0.21973412  0.34911328    -0.91800
C367        C  0.46145825  0.20868232  0.31181556     1.02300
C368        C  0.54677998  0.39465301  0.35667441     1.01000
C369        C  0.40958655  0.12213836  0.35678383     1.00400
C370        C  0.60083061  0.20982446  0.31507146     1.02400
C371        C  0.68323340  0.39998502  0.35713865     1.01300
C372        C  0.50261532  0.30321794  0.40418325     1.00100
C373        C  0.41009631  0.25624397  0.35764133     1.00200
C374        C  0.59305622  0.34644755  0.31188812     1.02800
H375        H  0.49549541  0.30858034  0.37042021     0.30200
O376        O  0.51093214  0.29391543  0.36691080    -1.05100
H377        H  0.55062028  0.25621342  0.32021099     0.32200
O378        O  0.54991798  0.25686620  0.33129026    -1.07600
O379        O  0.35002753  0.70171278  0.68347286    -0.80200
O380        O  0.13991021  0.59632440  0.73218140    -0.81700
O381        O  0.24029154  0.72349211  0.70315778    -0.78800
O382        O  0.29243892  0.66030994  0.73386983    -0.77200
O383        O  0.29693130  0.59755015  0.73299815    -0.78900
O384        O  0.19758375  0.70165938  0.68136839    -0.79900
O385        O  0.20381409  0.66210298  0.73276193    -0.81200
O386        O  0.32632015  0.72123516  0.70508611    -0.81500
Eu387      Eu  0.25129528  0.66268425  0.71133949     2.39200
O388        O  0.21498456  0.58940857  0.71993718    -0.89000
O389        O  0.25355037  0.66411949  0.68407801    -0.92600
C390        C  0.35544629  0.72826318  0.69467006     1.02100
C391        C  0.16498153  0.63472396  0.73800008     1.01900
C392        C  0.21967861  0.72987887  0.69201709     1.01800
C393        C  0.30543427  0.63438974  0.73913047     0.99700
H394        H  0.16447767  0.64151275  0.70502813     0.29500
O395        O  0.17949750  0.62655002  0.70145659    -1.01400
H396        H  0.31881786  0.64195515  0.70638531     0.29500
O397        O  0.28902176  0.62726447  0.70239966    -1.03900
O398        O  0.08534799  0.47915853  0.70279931    -0.81200
O399        O  0.29353646  0.58679607  0.65292354    -0.80700
O400        O  0.10839912  0.61537958  0.68137435    -0.79100
O401        O  0.20748009  0.51052111  0.73303154    -0.82500
O402        O  0.32480014  0.56513244  0.70337566    -0.80300
O403        O  0.22742335  0.67316945  0.65257555    -0.79000
O404        O  0.13884053  0.51831534  0.65225523    -0.80500
O405        O  0.19904408  0.46067288  0.68074464    -0.82400
O406        O  0.13725660  0.58250546  0.65230186    -0.79200
O407        O  0.23806826  0.48047847  0.70335412    -0.81800
O408        O  0.08529069  0.57041360  0.70256117    -0.77600
O409        O  0.29264408  0.67332756  0.65288732    -0.77600
O410        O  0.34808116  0.61103517  0.68237327    -0.77200
O411        O  0.14241087  0.51041978  0.73278077    -0.80700
O412        O  0.10984602  0.45903232  0.68156044    -0.80200
O413        O  0.22977967  0.52104205  0.65231135    -0.78500
Eu414      Eu  0.14286011  0.55341838  0.71020752     2.39800
Eu415      Eu  0.29121848  0.62888743  0.67516543     2.39600
Eu416      Eu  0.18152163  0.62756983  0.67423375     2.38400
Eu417      Eu  0.25251999  0.55389391  0.71097373     2.39900
Eu418      Eu  0.18314127  0.51910095  0.67415099     2.39800
O419        O  0.25506405  0.55571041  0.68381801    -0.92900
O420        O  0.14501412  0.55424095  0.68295045    -0.91800
C421        C  0.08111198  0.45145448  0.69219845     1.02300
C422        C  0.26823173  0.54879197  0.64691316     1.01000
C423        C  0.07999393  0.59351742  0.69204853     1.00400
C424        C  0.16946566  0.49974953  0.73872638     1.02400
C425        C  0.35282859  0.58703708  0.69263403     1.01300
C426        C  0.26592516  0.68469223  0.64713887     1.00100
C427        C  0.12640365  0.54434036  0.64671441     1.00200
C428        C  0.21878098  0.45373345  0.69202832     1.02800
H429        H  0.21979480  0.59263039  0.65427559     0.30200
O430        O  0.21914851  0.59223799  0.66534838    -1.05100
H431        H  0.16551805  0.48747078  0.70506177     0.32200
O432        O  0.18042452  0.51766872  0.70138950    -1.07600
O433        O  0.22181330  0.51427123  0.15097215    -0.80200
O434        O  0.32185294  0.72069820  0.20178549    -0.81700
O435        O  0.28373962  0.66951791  0.15039059    -0.78800
O436        O  0.34740112  0.61566870  0.18010558    -0.77200
O437        O  0.32549832  0.57343170  0.20200995    -0.78900
O438        O  0.21882104  0.66982541  0.15125219    -0.79900
O439        O  0.34374734  0.69891867  0.18035136    -0.81200
O440        O  0.28689493  0.57962715  0.15081868    -0.81500
Eu441      Eu  0.28553210  0.62529249  0.17234494     2.39200
O442        O  0.28520485  0.62565759  0.19959673    -0.89000
O443        O  0.21236894  0.58730000  0.16369159    -0.92600
C444        C  0.26023595  0.54093969  0.14542424     1.02100
C445        C  0.35014471  0.72684708  0.19117805     1.01900
C446        C  0.25682941  0.68163865  0.14533389     1.01800
C447        C  0.35380515  0.59528999  0.19132704     0.99700
H448        H  0.26253128  0.69022653  0.17777027     0.29500
O449        O  0.24792610  0.66030659  0.18153300    -1.01400
H450        H  0.26619545  0.53838020  0.17837123     0.29500
O451        O  0.25053666  0.55273539  0.18189264    -1.03900
O452        O  0.20266280  0.65981162  0.23069705    -0.81200
O453        O  0.10549970  0.45362249  0.18110114    -0.80700
O454        O  0.18774103  0.69557220  0.17941787    -0.79100
O455        O  0.29376984  0.59741296  0.23100963    -0.82500
O456        O  0.23842284  0.48068038  0.20263037    -0.80300
O457        O  0.13411281  0.57844299  0.15042046    -0.79000
O458        O  0.08069193  0.56610609  0.20257526    -0.80500
O459        O  0.14143294  0.51048656  0.23155165    -0.82400
O460        O  0.10156974  0.60920236  0.18084452    -0.79200
O461        O  0.20710431  0.51226081  0.23205480    -0.81800
O462        O  0.23337736  0.71920445  0.20048963    -0.77600
O463        O  0.13543396  0.51414299  0.15014461    -0.77600
O464        O  0.19577933  0.45807278  0.18090549    -0.77200
O465        O  0.29413349  0.66268358  0.23050079    -0.80700
O466        O  0.13800525  0.59445571  0.23096743    -0.80200
O467        O  0.08284705  0.47623613  0.20224460    -0.78500
Eu468      Eu  0.24819874  0.66118243  0.20873599     2.39800
Eu469      Eu  0.17753449  0.51455921  0.17297606     2.39600
Eu470      Eu  0.17475852  0.62256073  0.17276376     2.38400
Eu471      Eu  0.25003436  0.55347403  0.20913982     2.39900
Eu472      Eu  0.13987568  0.55124244  0.20894057     2.39800
O473        O  0.17716636  0.51531913  0.20020328    -0.92900
O474        O  0.17523166  0.62389826  0.19988473    -0.91800
C475        C  0.16486177  0.63262574  0.23662588     1.02300
C476        C  0.07790620  0.44738469  0.19202870     1.01000
C477        C  0.21088425  0.72430064  0.18973676     1.00400
C478        C  0.30512237  0.63578818  0.23636269     1.02400
C479        C  0.21766464  0.45254853  0.19184325     1.01300
C480        C  0.12489379  0.54142868  0.14430022     1.00100
C481        C  0.07456422  0.58828496  0.19199632     1.00200
C482        C  0.16912375  0.50150040  0.23786354     1.02800
H483        H  0.10896705  0.53401249  0.17798098     0.30200
O484        O  0.13897230  0.54953205  0.18170387    -1.05100
H485        H  0.21290362  0.58951903  0.22907672     0.32200
O486        O  0.21266456  0.58888612  0.21803608    -1.07600
O487        O  0.87437881  0.99616116  0.56466513    -0.80200
O488        O  0.77058826  0.79465393  0.51247426    -0.81700
O489        O  0.75228712  0.90393063  0.53534428    -0.78800
O490        O  0.80893575  0.83988336  0.56324127    -0.77200
O491        O  0.87263359  0.83745734  0.56296782    -0.78900
O492        O  0.77390775  0.94727386  0.51366351    -0.79900
O493        O  0.74992002  0.81634930  0.53429738    -0.81200
O494        O  0.80851879  0.93217913  0.56426446    -0.81500
Eu495      Eu  0.81053545  0.88816453  0.54238525     2.39200
O496        O  0.84551823  0.85108190  0.53265290    -0.89000
O497        O  0.84815442  0.96133854  0.53384323    -0.92600
C498        C  0.83525392  0.97040374  0.56993634     1.02100
C499        C  0.74258880  0.78898490  0.52321504     1.01900
C500        C  0.74614879  0.92547987  0.52449587     1.01800
C501        C  0.83419388  0.82593883  0.56844301     0.99700
H502        H  0.78106651  0.87610510  0.51137264     0.29500
O503        O  0.81094664  0.89038722  0.51516506    -1.01400
H504        H  0.88275943  0.92142234  0.56292724     0.29500
O505        O  0.88305475  0.92238078  0.55183507    -1.03900
O506        O  0.88863914  0.85603603  0.48257169    -0.81200
O507        O  0.99551419  0.05400047  0.53650371    -0.80700
O508        O  0.80444301  0.92133739  0.48426283    -0.79100
O509        O  0.90294556  0.81233160  0.53348687    -0.82500
O510        O  0.96393930  0.92788124  0.56383511    -0.80300
O511        O  0.86157149  0.03609704  0.51564027    -0.79000
O512        O  0.95702875  0.00744621  0.48471814    -0.80500
O513        O  0.01449971  0.94539897  0.51236176    -0.82400
O514        O  0.89274036  0.00875440  0.48467086    -0.79200
O515        O  0.99230940  0.90178812  0.53386439    -0.81800
O516        O  0.80264254  0.85573204  0.48350553    -0.77600
O517        O  0.90532654  0.05528916  0.53710553    -0.77600
O518        O  0.96479917  0.99322389  0.56469006    -0.77200
O519        O  0.86000036  0.79330438  0.51171829    -0.80700
O520        O  0.95418848  0.92055782  0.48265387    -0.80200
O521        O  0.01694965  0.03169656  0.51493701    -0.78500
Eu522      Eu  0.84563575  0.85310790  0.50544792     2.39800
Eu523      Eu  0.92045186  0.99587027  0.54316675     2.39600
Eu524      Eu  0.84839264  0.96385239  0.50666495     2.38400
Eu525      Eu  0.91829672  0.88552941  0.54174108     2.39900
Eu526      Eu  0.95585422  0.96114644  0.50611785     2.39800
O527        O  0.95509368  0.95875033  0.53328289    -0.92900
O528        O  0.88325272  0.92661616  0.49709880    -0.91800
C529        C  0.92621741  0.88340855  0.47656163     1.02300
C530        C  0.02372534  0.05900795  0.52597662     1.01000
C531        C  0.79219549  0.88353791  0.47811666     1.00400
C532        C  0.88131198  0.78595976  0.52233170     1.02400
C533        C  0.97633349  0.96595428  0.56979755     1.01300
C534        C  0.88273655  0.06237670  0.52691046     1.00100
C535        C  0.93102444  0.01986411  0.47912599     1.00200
C536        C  0.02046681  0.92346614  0.52308235     1.02800
H537        H  0.93697906  0.02934315  0.51245709     0.30200
O538        O  0.92129771  0.99885712  0.51586224    -1.05100
H539        H  0.93316555  0.87263174  0.51035981     0.32200
O540        O  0.91862899  0.88746297  0.51444803    -1.07600
C541        C  0.93463308  0.04828812  0.96749130    -0.12000
C542        C  0.97837816  0.08280565  0.96539403     0.03400
C543        C  0.98943085  0.10991675  0.95234883    -0.12600
C544        C  0.95745474  0.10399555  0.94148366     0.18300
C545        C  0.91372306  0.07053988  0.94370949    -0.09600
C546        C  0.90265758  0.04292564  0.95657997    -0.02600
H547        H  0.02294593  0.13634122  0.95082529     0.04800
C548        C  0.96986078  0.13349996  0.92800879     0.20300
H549        H  0.86888170  0.01698894  0.95801276     0.10000
C550        C  0.98628952  0.12391482  0.91470539    -0.16000
C551        C  0.99430786  0.14886539  0.90121320     0.03000
C552        C  0.98554552  0.18380925  0.90098750    -0.11300
C553        C  0.97045938  0.19411045  0.91450746    -0.01300
C554        C  0.96300906  0.16954926  0.92799687    -0.06500
H555        H  0.99150961  0.09607219  0.91468133     0.06000
H556        H  0.96385664  0.22106824  0.91451064     0.09400
Br557      Br  0.86811171  0.06170783  0.92948007    -0.06200
Br558      Br  0.02377856  0.09730197  0.98044125    -0.03100
Br559      Br  0.01316948  0.13122904  0.88314046    -0.00300
Br560      Br  0.94262760  0.18572782  0.94604274    -0.04600
C561        C  0.72181328  0.25298679  0.85990987    -0.12000
C562        C  0.73516667  0.23566133  0.84776931     0.03400
C563        C  0.77453030  0.23523532  0.84901194    -0.12600
C564        C  0.80072552  0.25167494  0.86226022     0.18300
C565        C  0.78746139  0.26911203  0.87438226    -0.09600
C566        C  0.74805992  0.26947734  0.87315958    -0.02600
H567        H  0.78427610  0.22107621  0.83978384     0.04800
C568        C  0.84018192  0.24755012  0.86362769     0.20300
H569        H  0.73785773  0.28269486  0.88256650     0.10000
C570        C  0.88177473  0.28435280  0.86120550    -0.16000
C571        C  0.91972508  0.28123671  0.86278258     0.03000
C572        C  0.91609912  0.24068699  0.86680889    -0.11300
C573        C  0.87425405  0.20385691  0.86898078    -0.01300
C574        C  0.83649776  0.20699988  0.86740702    -0.06500
H575        H  0.88468883  0.31570609  0.85836532     0.06000
H576        H  0.87092416  0.17253171  0.87216379     0.09400
Br577      Br  0.82119952  0.29116747  0.89299157    -0.06200
Br578      Br  0.69919821  0.20902849  0.82989313    -0.03100
Br579      Br  0.97523198  0.33403455  0.86070179    -0.00300
Br580      Br  0.78066873  0.15548495  0.87117288    -0.04600
C581        C  0.15563129  0.47267804  0.75298436    -0.12000
C582        C  0.18554741  0.47934997  0.76502304     0.03400
C583        C  0.17156606  0.45173290  0.77795800    -0.12600
C584        C  0.12817264  0.41717760  0.77917472     0.18300
C585        C  0.09800011  0.41094320  0.76741926    -0.09600
C586        C  0.11172758  0.43879507  0.75450467    -0.02600
H587        H  0.19489273  0.45674227  0.78702426     0.04800
C588        C  0.11631323  0.38636250  0.79229418     0.20300
H589        H  0.08830782  0.43309270  0.74539832     0.10000
C590        C  0.10027293  0.39419120  0.80606785    -0.16000
C591        C  0.09341952  0.36795270  0.81915927     0.03000
C592        C  0.10331470  0.33378436  0.81856561    -0.11300
C593        C  0.11841721  0.32553177  0.80466311    -0.01300
C594        C  0.12441506  0.35112922  0.79154818    -0.06500
H595        H  0.09426359  0.42147979  0.80674685     0.06000
H596        H  0.12585179  0.29918007  0.80403022     0.09400
Br597      Br  0.03838627  0.36373209  0.76830150    -0.06200
Br598      Br  0.24550451  0.52628126  0.76482575    -0.03100
Br599      Br  0.07453338  0.38266536  0.83787905    -0.00300
Br600      Br  0.14424610  0.33718453  0.77287374    -0.04600
C601        C  0.17461802  0.27736394  0.85239611    -0.12000
C602        C  0.17257562  0.23714285  0.85575897     0.03400
C603        C  0.21145286  0.23582095  0.85753325    -0.12600
C604        C  0.25246292  0.27403666  0.85597592     0.18300
C605        C  0.25458963  0.31434782  0.85308587    -0.09600
C606        C  0.21585693  0.31575519  0.85130376    -0.02600
H607        H  0.20974297  0.20462384  0.85960071     0.04800
C608        C  0.29254727  0.27066392  0.85623449     0.20300
H609        H  0.21796480  0.34692074  0.84876531     0.10000
C610        C  0.31008683  0.26668417  0.84219166    -0.16000
C611        C  0.34778047  0.26290237  0.84188133     0.03000
C612        C  0.36852518  0.26294656  0.85589862    -0.11300
C613        C  0.35041956  0.26646627  0.86997104    -0.01300
C614        C  0.31294521  0.27069287  0.87019655    -0.06500
H615        H  0.29416711  0.26629813  0.83141413     0.06000
H616        H  0.36610807  0.26706292  0.88082412     0.09400
Br617      Br  0.30969091  0.36794635  0.85110842    -0.06200
Br618      Br  0.11819054  0.18250657  0.85643435    -0.03100
Br619      Br  0.36757707  0.25542963  0.82199280    -0.00300
Br620      Br  0.29141178  0.27794524  0.88970576    -0.04600
C621        C  0.96377818  0.48521687  0.06350763    -0.12000
C622        C  0.99005903  0.46527438  0.06429202     0.03400
C623        C  0.01570306  0.47119425  0.07748153    -0.12600
C624        C  0.01568619  0.49671165  0.08995186     0.18300
C625        C  0.98873020  0.51567090  0.08928139    -0.09600
C626        C  0.96315693  0.50972560  0.07622155    -0.02600
H627        H  0.03687407  0.45706532  0.07780194     0.04800
C628        C  0.04620354  0.50635440  0.10307509     0.20300
H629        H  0.94293656  0.52492947  0.07596735     0.10000
C630        C  0.07930188  0.54992550  0.10547785    -0.16000
C631        C  0.10588133  0.56189240  0.11860157     0.03000
C632        C  0.10006658  0.52958516  0.12959640    -0.11300
C633        C  0.06870902  0.48546279  0.12667492    -0.01300
C634        C  0.04168056  0.47372184  0.11358439    -0.06500
H635        H  0.08366666  0.57506526  0.09724851     0.06000
H636        H  0.06392982  0.46021571  0.13491403     0.09400
Br637      Br  0.98572110  0.55043731  0.10583959    -0.06200
Br638      Br  0.99563738  0.43304969  0.04738168    -0.03100
Br639      Br  0.14976242  0.62290920  0.12048908    -0.00300
Br640      Br  0.99734486  0.41330990  0.11112905    -0.04600
C641        C  0.88598010  0.74982706  0.02688613    -0.12000
C642        C  0.86971056  0.72091232  0.03958592     0.03400
C643        C  0.87354943  0.68325083  0.03980074    -0.12600
C644        C  0.89343508  0.67386357  0.02746957     0.18300
C645        C  0.90902824  0.70234425  0.01464579    -0.09600
C646        C  0.90507230  0.74000759  0.01439793    -0.02600
H647        H  0.86109753  0.66122145  0.04963592     0.04800
C648        C  0.89862370  0.63481383  0.02844108     0.20300
H649        H  0.91772132  0.76213953  0.00459384     0.10000
C650        C  0.87044663  0.59691465  0.02005985    -0.16000
C651        C  0.87333987  0.55867858  0.02133264     0.03000
C652        C  0.90549621  0.55826440  0.03112963    -0.11300
C653        C  0.93412029  0.59704818  0.03922478    -0.01300
C654        C  0.93067483  0.63471993  0.03805323    -0.06500
H655        H  0.84547086  0.59686488  0.01271390     0.06000
H656        H  0.95937881  0.59829522  0.04671865     0.09400
Br657      Br  0.93726283  0.69174342  0.99755850    -0.06200
Br658      Br  0.84007714  0.73044697  0.05649976    -0.03100
Br659      Br  0.83067939  0.50848076  0.00994552    -0.00300
Br660      Br  0.97050904  0.68533675  0.04988723    -0.04600
C661        C  0.86834330  0.29917342  0.01609699    -0.12000
C662        C  0.87661227  0.28883327  0.03113063     0.03400
C663        C  0.88067494  0.25158006  0.03339648    -0.12600
C664        C  0.87708486  0.22456566  0.02094048     0.18300
C665        C  0.87063596  0.23566734  0.00594540    -0.09600
C666        C  0.86601985  0.27239855  0.00364255    -0.02600
H667        H  0.88542221  0.24292578  0.04498377     0.04800
C668        C  0.87650250  0.18294807  0.02371705     0.20300
H669        H  0.86057728  0.28003196  0.99199507     0.10000
C670        C  0.83689210  0.14351355  0.02160843    -0.16000
C671        C  0.83540529  0.10318707  0.02235029     0.03000
C672        C  0.87418359  0.10199593  0.02539848    -0.11300
C673        C  0.91342554  0.14145388  0.02824485    -0.01300
C674        C  0.91486809  0.18181489  0.02736021    -0.06500
H675        H  0.80713312  0.14425368  0.01901878     0.06000
H676        H  0.94341762  0.14100716  0.03067194     0.09400
Br677      Br  0.86827934  0.20151998  0.98825839    -0.06200
Br678      Br  0.87952223  0.32162757  0.04927816    -0.03100
Br679      Br  0.77922881  0.05114243  0.01960316    -0.00300
Br680      Br  0.97028304  0.23437712  0.03031958    -0.04600
C681        C  0.79569605  0.36123531  0.98527886    -0.12000
C682        C  0.75355396  0.32358719  0.98473549     0.03400
C683        C  0.72744936  0.31486357  0.97155552    -0.12600
C684        C  0.74219288  0.34399185  0.95901256     0.18300
C685        C  0.78248310  0.38353415  0.96007889    -0.09600
C686        C  0.80926725  0.39178550  0.97311005    -0.02600
H687        H  0.69560996  0.28524041  0.97106276     0.04800
C688        C  0.71511144  0.33265407  0.94488958     0.20300
H689        H  0.84112432  0.42138123  0.97354199     0.10000
C690        C  0.68079469  0.34186183  0.94417012    -0.16000
C691        C  0.65472442  0.33193282  0.93090673     0.03000
C692        C  0.66258494  0.31187982  0.91810893    -0.11300
C693        C  0.69683280  0.30227110  0.91896116    -0.01300
C694        C  0.72324586  0.31283915  0.93216363    -0.06500
H695        H  0.67428256  0.35685341  0.95399295     0.06000
H696        H  0.70332909  0.28685188  0.90926662     0.09400
Br697      Br  0.80145193  0.42670316  0.94392721    -0.06200
Br698      Br  0.72925767  0.28462839  0.00210985    -0.03100
Br699      Br  0.60736259  0.34417752  0.93140094    -0.00300
Br700      Br  0.77010048  0.29980242  0.93239795    -0.04600
C701        C  0.84354899  0.61029552  0.18545003    -0.12000
C702        C  0.88428307  0.63626171  0.17771429     0.03400
C703        C  0.91971846  0.62993981  0.18076330    -0.12600
C704        C  0.91626075  0.59845146  0.19140399     0.18300
C705        C  0.87674599  0.57371387  0.19959792    -0.09600
C706        C  0.84088105  0.57977475  0.19662044    -0.02600
H707        H  0.95034578  0.64954450  0.17460505     0.04800
C708        C  0.95453109  0.59204600  0.19328108     0.20300
H709        H  0.81052969  0.55979471  0.20286000     0.10000
C710        C  0.99163958  0.62373338  0.20128572    -0.16000
C711        C  0.03074994  0.62234257  0.20127842     0.03000
C712        C  0.03347757  0.58967337  0.19277114    -0.11300
C713        C  0.99608674  0.55726007  0.18516169    -0.01300
C714        C  0.95667646  0.55803787  0.18546186    -0.06500
H715        H  0.99035213  0.65001719  0.20733529     0.06000
H716        H  0.99766901  0.53147908  0.17886363     0.09400
Br717      Br  0.87045699  0.53134737  0.21485836    -0.06200
Br718      Br  0.89586314  0.68210334  0.16308152    -0.03100
Br719      Br  0.07953875  0.66555762  0.21302292    -0.00300
Br720      Br  0.90708679  0.51283304  0.17461989    -0.04600
C721        C  0.81911856  0.80351005  0.08608159    -0.12000
C722        C  0.84876988  0.80835759  0.09795630     0.03400
C723        C  0.83486285  0.77800711  0.11009142    -0.12600
C724        C  0.79170325  0.74257312  0.11070989     0.18300
C725        C  0.76166268  0.73833632  0.09916351    -0.09600
C726        C  0.77544612  0.76873687  0.08699936    -0.02600
H727        H  0.85794830  0.78192953  0.11910796     0.04800
C728        C  0.77946355  0.71044497  0.12346952     0.20300
H729        H  0.75223739  0.76441632  0.07797909     0.10000
C730        C  0.75260562  0.71005737  0.13551631    -0.16000
C731        C  0.74567379  0.68448462  0.14880525     0.03000
C732        C  0.76653008  0.65906441  0.15023508    -0.11300
C733        C  0.79144046  0.65790589  0.13770351    -0.01300
C734        C  0.79774546  0.68300667  0.12441777    -0.06500
H735        H  0.73832957  0.73106340  0.13482386     0.06000
H736        H  0.80683734  0.63790160  0.13832068     0.09400
Br737      Br  0.70228413  0.69045937  0.09913902    -0.06200
Br738      Br  0.90798890  0.85676574  0.09870573    -0.03100
Br739      Br  0.71041832  0.68918728  0.16483191    -0.00300
Br740      Br  0.83182572  0.67902685  0.10782415    -0.04600
C741        C  0.65436916  0.52157105  0.23523175    -0.12000
C742        C  0.64115309  0.52868069  0.24984904     0.03400
C743        C  0.63407385  0.49963460  0.26200470    -0.12600
C744        C  0.63958079  0.46321204  0.25982733     0.18300
C745        C  0.65290444  0.45618039  0.24527300    -0.09600
C746        C  0.66072338  0.48559717  0.23317621    -0.02600
H747        H  0.62376072  0.50518167  0.27318113     0.04800
C748        C  0.62968377  0.43221051  0.27275299     0.20300
H749        H  0.67042519  0.47952475  0.22196968     0.10000
C750        C  0.59126810  0.39105250  0.27221359    -0.16000
C751        C  0.57924419  0.36205380  0.28472017     0.03000
C752        C  0.60630392  0.37400873  0.29793246    -0.11300
C753        C  0.64538622  0.41458652  0.29825619    -0.01300
C754        C  0.65685176  0.44394905  0.28590017    -0.06500
H755        H  0.57016679  0.38185151  0.26214119     0.06000
H756        H  0.66617541  0.42419547  0.30841499     0.09400
Br757      Br  0.66035958  0.40669769  0.24130602    -0.06200
Br758      Br  0.63374335  0.57816189  0.25406892    -0.03100
Br759      Br  0.52615051  0.30632002  0.28304739    -0.00300
Br760      Br  0.70935193  0.49995994  0.28763979    -0.04600
C761        C  0.39670872  0.59716447  0.19220568    -0.12000
C762        C  0.39959066  0.56030299  0.19699886     0.14800
C763        C  0.44058315  0.56390165  0.19897557    -0.12600
C764        C  0.47923309  0.60351939  0.19608132     0.18300
C765        C  0.47679517  0.63994945  0.19068270    -0.09600
C766        C  0.43562530  0.63662719  0.18878941    -0.02600
H767        H  0.44238741  0.53544189  0.20272109     0.04800
C768        C  0.52140369  0.60498286  0.19847949     0.20300
H769        H  0.43406304  0.66518551  0.18501555     0.10000
C770        C  0.54320010  0.60035003  0.18570321    -0.16000
C771        C  0.57909444  0.59398177  0.18769697     0.03000
C772        C  0.59396769  0.59267618  0.20279631    -0.11300
C773        C  0.57281283  0.59894315  0.21552037    -0.01300
C774        C  0.53674579  0.60482333  0.21347473    -0.06500
H775        H  0.53081045  0.59947344  0.17415432     0.06000
H776        H  0.58380074  0.59839906  0.22717814     0.09400
Br777      Br  0.52886968  0.69477820  0.18625264    -0.06200
Br778      Br  0.34894858  0.50329796  0.20016382    -0.03100
Br779      Br  0.60247076  0.58236911  0.16938725    -0.00300
Br780      Br  0.50847440  0.61096662  0.23151631    -0.04600
C781        C  0.32140667  0.84076181  0.56457738    -0.12000
C782        C  0.35703800  0.83806652  0.57116549     0.03400
C783        C  0.35035734  0.81253456  0.58452872    -0.12600
C784        C  0.30864371  0.78846718  0.59130817     0.18300
C785        C  0.27295111  0.78896450  0.58430428    -0.09600
C786        C  0.27949315  0.81517744  0.57130436    -0.02600
H787        H  0.37788177  0.81149797  0.58968954     0.04800
C788        C  0.30222953  0.76316526  0.60577827     0.20300
H789        H  0.25113402  0.81509596  0.56640654     0.10000
C790        C  0.29824510  0.78065112  0.61989373    -0.16000
C791        C  0.28691592  0.75561195  0.63350971     0.03000
C792        C  0.28021392  0.71268767  0.63319646    -0.11300
C793        C  0.28535634  0.69560297  0.61919422    -0.01300
C794        C  0.29556300  0.72021731  0.60549695    -0.06500
H795        H  0.30270345  0.81341834  0.62021651     0.06000
H796        H  0.27965766  0.66236826  0.61879929     0.09400
Br797      Br  0.21419043  0.75289710  0.59187260    -0.06200
Br798      Br  0.41564846  0.86776101  0.56287970    -0.03100
Br799      Br  0.28082592  0.78104482  0.65231641    -0.00300
Br800      Br  0.29651432  0.69270727  0.58648552    -0.04600
C801        C  0.25662307  0.90995149  0.53290624    -0.12000
C802        C  0.23232104  0.91367111  0.54523945     0.03400
C803        C  0.19456848  0.91591209  0.54221328    -0.12600
C804        C  0.18017289  0.91484831  0.52704603     0.18300
C805        C  0.20554472  0.91371285  0.51462496    -0.09600
C806        C  0.24348169  0.91120770  0.51761817    -0.02600
H807        H  0.17613008  0.91843984  0.55180928     0.04800
C808        C  0.13876305  0.91538703  0.52471107     0.20300
H809        H  0.26195604  0.90889658  0.50799848     0.10000
C810        C  0.13978225  0.95174955  0.51765060    -0.16000
C811        C  0.10177803  0.95497649  0.51651950     0.03000
C812        C  0.06178117  0.92166490  0.52299316    -0.11300
C813        C  0.06101787  0.88498809  0.52979895    -0.01300
C814        C  0.09872244  0.88148058  0.53058534    -0.06500
H815        H  0.17055803  0.97817804  0.51322753     0.06000
H816        H  0.03072376  0.85847306  0.53448578     0.09400
Br817      Br  0.18851608  0.91357997  0.49351128    -0.06200
Br818      Br  0.24995405  0.91840589  0.56650837    -0.03100
Br819      Br  0.10819716  0.00654199  0.50645642    -0.00300
Br820      Br  0.09335826  0.82910202  0.53956577    -0.04600
C821        C  0.44855759  0.01169076  0.48648782    -0.12000
C822        C  0.41490187  0.99635135  0.47526366     0.03400
C823        C  0.42078917  0.02094319  0.46181442    -0.12600
C824        C  0.45966390  0.06084789  0.45939464     0.18300
C825        C  0.49269820  0.07680821  0.47074680    -0.09600
C826        C  0.48717710  0.05206185  0.48408023    -0.02600
H827        H  0.39534297  0.00851233  0.45306344     0.04800
C828        C  0.46620896  0.08504226  0.44478463     0.20300
H829        H  0.51326527  0.06434457  0.49258913     0.10000
C830        C  0.45875769  0.12057745  0.44441284    -0.16000
C831        C  0.46873510  0.14685752  0.43118888     0.03000
C832        C  0.48735538  0.13809668  0.41816716    -0.11300
C833        C  0.49379285  0.10179956  0.41847356    -0.01300
C834        C  0.48266771  0.07489697  0.43155511    -0.06500
H835        H  0.44605551  0.12845389  0.45458279     0.06000
H836        H  0.50738539  0.09425820  0.40846809     0.09400
Br837      Br  0.54620030  0.13184682  0.46831206    -0.06200
Br838      Br  0.36186906  0.94060701  0.47698405    -0.03100
Br839      Br  0.45916576  0.19593629  0.43207018    -0.00300
Br840      Br  0.49082013  0.02492671  0.43094095    -0.04600
C841        C  0.70395573  0.92472890  0.52430370    -0.12000
C842        C  0.68773839  0.93520603  0.53756872     0.03400
C843        C  0.64852918  0.93607275  0.53672841    -0.12600
C844        C  0.62482097  0.92620244  0.52287797     0.18300
C845        C  0.64030546  0.91460240  0.50971945    -0.09600
C846        C  0.67979192  0.91416304  0.51048725    -0.02600
H847        H  0.63705794  0.94568622  0.54680974     0.04800
C848        C  0.58682382  0.93299725  0.52198712     0.20300
H849        H  0.69181440  0.90578852  0.50024689     0.10000
C850        C  0.59473526  0.97594421  0.52037740    -0.16000
C851        C  0.56000599  0.98425176  0.51907221     0.03000
C852        C  0.51627494  0.94904444  0.51943701    -0.11300
C853        C  0.50843266  0.90613387  0.52170342    -0.01300
C854        C  0.54337784  0.89791504  0.52288973    -0.06500
H855        H  0.62820378  0.00313542  0.51999913     0.06000
H856        H  0.47507168  0.87876680  0.52201310     0.09400
Br857      Br  0.60950759  0.90087921  0.49037044    -0.06200
Br858      Br  0.71951371  0.95232430  0.55672525    -0.03100
Br859      Br  0.57457899  0.04448455  0.51742797    -0.00300
Br860      Br  0.53058352  0.83851997  0.52549627    -0.04600
C861        C  0.22037754  0.77216708  0.69143876    -0.12000
C862        C  0.25932400  0.81288991  0.69352342     0.03400
C863        C  0.25818908  0.85204149  0.69231256    -0.12600
C864        C  0.21873959  0.85122935  0.68908018     0.18300
C865        C  0.17996896  0.81072103  0.68710745    -0.09600
C866        C  0.18101433  0.77167975  0.68824005    -0.02600
H867        H  0.28830095  0.88322868  0.69353685     0.04800
C868        C  0.21870048  0.89269045  0.68659192     0.20300
H869        H  0.15085338  0.74072931  0.68663372     0.10000
C870        C  0.21865855  0.90634243  0.67138661    -0.16000
C871        C  0.21424501  0.94291361  0.66832943     0.03000
C872        C  0.21048238  0.96708171  0.68070079    -0.11300
C873        C  0.21213017  0.95421072  0.69597256    -0.01300
C874        C  0.21556984  0.91689874  0.69896929    -0.06500
H875        H  0.22101939  0.88773182  0.66182455     0.06000
H876        H  0.20887200  0.97210834  0.70558615     0.09400
Br877      Br  0.12492199  0.80740918  0.68274600    -0.06200
Br878      Br  0.31539876  0.81727030  0.69674471    -0.03100
Br879      Br  0.21447703  0.95833105  0.64698525    -0.00300
Br880      Br  0.21287395  0.89837512  0.72000612    -0.04600
C881        C  0.00493895  0.97926222  0.58371124    -0.12000
C882        C  0.03434263  0.96371909  0.58678067     0.03400
C883        C  0.05885055  0.97593092  0.60044059    -0.12600
C884        C  0.05518067  0.00372381  0.61117962     0.18300
C885        C  0.02759954  0.02087293  0.60789489    -0.09600
C886        C  0.00264974  0.00844607  0.59431551    -0.02600
H887        H  0.08097891  0.96355911  0.60275100     0.04800
C888        C  0.08013904  0.01349828  0.62577526     0.20300
H889        H  0.98070594  0.02112572  0.59220571     0.10000
C890        C  0.11595406  0.05565043  0.62835038    -0.16000
C891        C  0.14360735  0.06411844  0.64110652     0.03000
C892        C  0.13585990  0.02958431  0.65134202    -0.11300
C893        C  0.09873158  0.98800181  0.64907083    -0.01300
C894        C  0.07079720  0.97991514  0.63652531    -0.06500
H895        H  0.12330531  0.08164455  0.62009909     0.06000
H896        H  0.09167290  0.96138193  0.65699840     0.09400
Br897      Br  0.02181969  0.06009817  0.62182010    -0.06200
Br898      Br  0.04490601  0.92779416  0.57268306    -0.03100
Br899      Br  0.19311402  0.12237002  0.64300041    -0.00300
Br900      Br  0.02028335  0.92238188  0.63449006    -0.04600
C901        C  0.24770585  0.22585227  0.69436509    -0.12000
C902        C  0.21003343  0.22210027  0.68697971     0.03400
C903        C  0.20475072  0.25891015  0.68581334    -0.12600
C904        C  0.23642871  0.29960773  0.69177453     0.18300
C905        C  0.27473834  0.30396291  0.69848209    -0.09600
C906        C  0.28010740  0.26735080  0.69975571    -0.02600
H907        H  0.17525949  0.25556883  0.68057079     0.04800
C908        C  0.22873023  0.33713576  0.69136470     0.20300
H909        H  0.30951622  0.27125728  0.70526009     0.10000
C910        C  0.21577446  0.34928223  0.70495588    -0.16000
C911        C  0.21136266  0.38662604  0.70530318     0.03000
C912        C  0.21999410  0.41243085  0.69185622    -0.11300
C913        C  0.23144444  0.39927478  0.67811444    -0.01300
C914        C  0.23614309  0.36207066  0.67783273    -0.06500
H915        H  0.20959981  0.32988887  0.71537435     0.06000
H916        H  0.23826052  0.41885916  0.66771232     0.09400
Br917      Br  0.32031181  0.35942849  0.70614195    -0.06200
Br918      Br  0.16276436  0.16758792  0.67933235    -0.03100
Br919      Br  0.19171268  0.39987549  0.72422002    -0.00300
Br920      Br  0.25506596  0.34768355  0.65903218    -0.04600
C921        C  0.29720337  0.15271661  0.73052173    -0.12000
C922        C  0.31884021  0.12861181  0.73336339     0.03400
C923        C  0.34172914  0.13486832  0.74723675    -0.12600
C924        C  0.34269286  0.16395402  0.75847246     0.18300
C925        C  0.31902803  0.18581307  0.75611161    -0.09600
C926        C  0.29675478  0.18025841  0.74222752    -0.02600
H927        H  0.35992872  0.11791907  0.74910478     0.04800
C928        C  0.37205079  0.17460200  0.77185114     0.20300
H929        H  0.27945467  0.19817532  0.74052823     0.10000
C930        C  0.41588872  0.20794113  0.77026651    -0.16000
C931        C  0.44464885  0.22035130  0.78280507     0.03000
C932        C  0.42926045  0.19991372  0.79725629    -0.11300
C933        C  0.38571175  0.16555721  0.79870285    -0.01300
C934        C  0.35711906  0.15261833  0.78606188    -0.06500
H935        H  0.42775972  0.22418305  0.75920732     0.06000
H936        H  0.37383652  0.14912571  0.80973067     0.09400
Br937      Br  0.31742957  0.22471679  0.77130605    -0.06200
Br938      Br  0.32128960  0.08894760  0.71868131    -0.03100
Br939      Br  0.50509938  0.26281406  0.77932933    -0.00300
Br940      Br  0.29827385  0.10482694  0.78858233    -0.04600
C941        C  0.55163269  0.87811515  0.37038419    -0.12000
C942        C  0.54560993  0.89258902  0.35577437     0.03400
C943        C  0.54203146  0.93048153  0.35471755    -0.12600
C944        C  0.54601459  0.95549733  0.36786777     0.18300
C945        C  0.55265489  0.94169198  0.38237388    -0.09600
C946        C  0.55480348  0.90318239  0.38355597    -0.02600
H947        H  0.53813857  0.94166303  0.34345847     0.04800
C948        C  0.54666986  0.99767167  0.36606352     0.20300
H949        H  0.55988957  0.89334080  0.39489091     0.10000
C950        C  0.50723047  0.99785976  0.36388390    -0.16000
C951        C  0.50721463  0.03753239  0.36229503     0.03000
C952        C  0.54727807  0.07774870  0.36259288    -0.11300
C953        C  0.58658384  0.07739857  0.36490936    -0.01300
C954        C  0.58652886  0.03784339  0.36658156    -0.06500
H955        H  0.47635722  0.96711532  0.36372435     0.06000
H956        H  0.61753947  0.10805161  0.36530324     0.09400
Br957      Br  0.56087208  0.97543349  0.40080345    -0.06200
Br958      Br  0.54705474  0.86572472  0.33663026    -0.03100
Br959      Br  0.45157157  0.03528041  0.36113020    -0.00300
Br960      Br  0.64172865  0.04010212  0.36941572    -0.04600
C961        C  0.76332690  0.87025613  0.46413425    -0.12000
C962        C  0.75406684  0.89955614  0.45582988     0.03400
C963        C  0.72526585  0.88427028  0.44323934    -0.12600
C964        C  0.70449787  0.84016668  0.43870150     0.18300
C965        C  0.71413663  0.81112500  0.44659769    -0.09600
C966        C  0.74328810  0.82619806  0.45910892    -0.02600
H967        H  0.71829706  0.90690665  0.43705753     0.04800
C968        C  0.67190863  0.82529299  0.42600776     0.20300
H969        H  0.74936595  0.80277268  0.46513811     0.10000
C970        C  0.68091982  0.81187627  0.41184418    -0.16000
C971        C  0.65273758  0.80228652  0.39914757     0.03000
C972        C  0.61503045  0.80642154  0.40055412    -0.11300
C973        C  0.60535432  0.81827001  0.41489399    -0.01300
C974        C  0.63318036  0.82740646  0.42756776    -0.06500
H975        H  0.71082256  0.81050461  0.41049890     0.06000
H976        H  0.57645044  0.82150102  0.41613780     0.09400
Br977      Br  0.68644635  0.75009302  0.44123692    -0.06200
Br978      Br  0.77841552  0.96076071  0.46065175    -0.03100
Br979      Br  0.66973405  0.78831832  0.37983627    -0.00300
Br980      Br  0.61711222  0.84317336  0.44673723    -0.04600
C981        C  0.52487196  0.62567889  0.34813526    -0.12000
C982        C  0.49535884  0.58436199  0.34141342     0.03400
C983        C  0.50202652  0.54877178  0.34347999    -0.12600
C984        C  0.53728493  0.55288762  0.35220988     0.18300
C985        C  0.56658406  0.59352238  0.35899469    -0.09600
C986        C  0.56017538  0.62947415  0.35698703    -0.02600
H987        H  0.47919886  0.51735678  0.33835800     0.04800
C988        C  0.54211144  0.51384380  0.35417647     0.20300
H989        H  0.58333873  0.66066399  0.36215103     0.10000
C990        C  0.56787593  0.50627627  0.34363323    -0.16000
C991        C  0.56993328  0.46760927  0.34436592     0.03000
C992        C  0.54644764  0.43622208  0.35591904    -0.11300
C993        C  0.52120887  0.44409830  0.36661033    -0.01300
C994        C  0.51842916  0.48235005  0.36566817    -0.06500
H995        H  0.58571387  0.53012439  0.33463706     0.06000
H996        H  0.50267082  0.41987785  0.37542663     0.09400
Br997      Br  0.61567223  0.60114551  0.37102598    -0.06200
Br998      Br  0.44363294  0.57237191  0.32995480    -0.03100
Br999      Br  0.60538669  0.45910881  0.32945146    -0.00300
Br1000     Br  0.48070068  0.48967832  0.37987545    -0.04600
C1001       C  0.33283604  0.64984698  0.25024271    -0.12000
C1002       C  0.31922259  0.62506076  0.26400778     0.03400
C1003       C  0.34698224  0.63878057  0.27688397    -0.12600
C1004       C  0.38851297  0.67671099  0.27616360     0.18300
C1005       C  0.40214549  0.70129361  0.26238738    -0.09600
C1006       C  0.37417552  0.68792883  0.24958559    -0.02600
H1007       H  0.33652523  0.61941257  0.28740298     0.04800
C1008       C  0.41852121  0.68810125  0.28945840     0.20300
H1009       H  0.38521942  0.70657536  0.23894502     0.10000
C1010       C  0.45296320  0.67919159  0.28850347    -0.16000
C1011       C  0.48046308  0.68648672  0.30112360     0.03000
C1012       C  0.47372626  0.70316655  0.31510477    -0.11300
C1013       C  0.44042435  0.71408255  0.31579019    -0.01300
C1014       C  0.41256075  0.70621287  0.30311764    -0.06500
H1015       H  0.45789504  0.66560944  0.27794942     0.06000
H1016       H  0.43459180  0.72657613  0.32643596     0.09400
Br1017     Br  0.45883225  0.75297769  0.26054912    -0.06200
Br1018     Br  0.26292558  0.57273220  0.26583369    -0.03100
Br1019     Br  0.52666568  0.67301800  0.29837948    -0.00300
Br1020     Br  0.36603094  0.71935020  0.30499158    -0.04600
C1021       C  0.82405698  0.98557376  0.08699151    -0.12000
C1022       C  0.83212690  0.02876007  0.08943612     0.03400
C1023       C  0.81922078  0.03928058  0.10334181    -0.12600
C1024       C  0.79854615  0.00755520  0.11490517     0.18300
C1025       C  0.79139980  0.96492199  0.11265170    -0.09600
C1026       C  0.80406987  0.95421618  0.09878332    -0.02600
H1027       H  0.82395227  0.07190973  0.10494418     0.04800
C1028       C  0.77936270  0.01748447  0.12834344     0.20300
H1029       H  0.79813408  0.92113571  0.09719571     0.10000
C1030       C  0.73567342  0.00753282  0.12734980    -0.16000
C1031       C  0.71439345  0.01256238  0.14012154     0.03000
C1032       C  0.73688881  0.02735094  0.15433478    -0.11300
C1033       C  0.78154925  0.03958048  0.15505748    -0.01300
C1034       C  0.80285943  0.03471609  0.14215047    -0.06500
H1035       H  0.71784638  0.99519673  0.11659261     0.06000
H1036       H  0.79948413  0.05150796  0.16580717     0.09400
Br1037     Br  0.76318295  0.91998540  0.12805161    -0.06200
Br1038     Br  0.85696372  0.07380468  0.07388081    -0.03100
Br1039     Br  0.65527578  0.00043901  0.13709347    -0.00300
Br1040     Br  0.86339984  0.05061008  0.14388440    -0.04600
C1041       C  0.39292068  0.76890033  0.19111778    -0.12000
C1042       C  0.41060650  0.79608620  0.20435875     0.03400
C1043       C  0.45156643  0.83467507  0.20344836    -0.12600
C1044       C  0.47573857  0.84681097  0.18966398     0.18300
C1045       C  0.45858275  0.81992421  0.17657128    -0.09600
C1046       C  0.41754325  0.78177559  0.17731758    -0.02600
H1047       H  0.46509874  0.85494874  0.21364774     0.04800
C1048       C  0.52002525  0.88613791  0.18932987     0.20300
H1049       H  0.40513772  0.76186042  0.16699444     0.10000
C1050       C  0.55590359  0.88231093  0.19425792    -0.16000
C1051       C  0.59872189  0.91786532  0.19307441     0.03000
C1052       C  0.60606176  0.95828763  0.18715647    -0.11300
C1053       C  0.57008975  0.96239331  0.18246967    -0.01300
C1054       C  0.52721838  0.92655821  0.18345096    -0.06500
H1055       H  0.55063073  0.85118768  0.19865924     0.06000
H1056       H  0.57547365  0.99313763  0.17764712     0.09400
Br1057     Br  0.49097928  0.83306293  0.15757650    -0.06200
Br1058     Br  0.38288222  0.78202626  0.22434084    -0.03100
Br1059     Br  0.64625722  0.90934404  0.19925061    -0.00300
Br1060     Br  0.47951913  0.93351054  0.17619762    -0.04600
C1061       C  0.70854579  0.13630520  0.23951494    -0.12000
C1062       C  0.66675331  0.13240639  0.23827518     0.03400
C1063       C  0.64780457  0.14019665  0.25123932    -0.12600
C1064       C  0.67002604  0.15205740  0.26542954     0.18300
C1065       C  0.71096550  0.15441431  0.26680984    -0.09600
C1066       C  0.72999062  0.14679348  0.25388100    -0.02600
H1067       H  0.61653712  0.13895511  0.25008584     0.04800
C1068       C  0.65232349  0.16650431  0.27813702     0.20300
H1069       H  0.76206315  0.14982053  0.25498587     0.10000
C1070       C  0.62056281  0.13548543  0.28808611    -0.16000
C1071       C  0.60353325  0.14862461  0.30027455     0.03000
C1072       C  0.61772385  0.19379892  0.30239571    -0.11300
C1073       C  0.64976910  0.22463222  0.29231293    -0.01300
C1074       C  0.66716837  0.21132732  0.28035017    -0.06500
H1075       H  0.60959659  0.10095818  0.28652369     0.06000
H1076       H  0.66139477  0.25934340  0.29369173     0.09400
Br1077     Br  0.74275318  0.16966243  0.28596090    -0.06200
Br1078     Br  0.63635898  0.12147250  0.21890442    -0.03100
Br1079     Br  0.56372476  0.10315265  0.31409243    -0.00300
Br1080     Br  0.71145199  0.25540059  0.26727214    -0.04600
C1081       C  0.84126872  0.20235862  0.20763345    -0.12000
C1082       C  0.87078122  0.22731093  0.21960870     0.03400
C1083       C  0.91007809  0.26559277  0.21601450    -0.12600
C1084       C  0.92065075  0.27995246  0.20069712     0.18300
C1085       C  0.89227403  0.25468717  0.18872222    -0.09600
C1086       C  0.85314053  0.21604534  0.19221454    -0.02600
H1087       H  0.93212942  0.28486251  0.22525805     0.04800
C1088       C  0.96035455  0.32258616  0.19756920     0.20300
H1089       H  0.83103330  0.19772939  0.18286152     0.10000
C1090       C  0.00042592  0.32428106  0.19486125    -0.16000
C1091       C  0.03899882  0.36457502  0.19265985     0.03000
C1092       C  0.03763853  0.40400037  0.19314222    -0.11300
C1093       C  0.99729208  0.40204466  0.19577007    -0.01300
C1094       C  0.95882113  0.36174709  0.19793399    -0.06500
H1095       H  0.00181584  0.29421088  0.19479444     0.06000
H1096       H  0.99575755  0.43202130  0.19624804     0.09400
Br1097     Br  0.90487979  0.27317112  0.16755285    -0.06200
Br1098     Br  0.86034234  0.21120795  0.24108731    -0.03100
Br1099     Br  0.09296554  0.36389842  0.19048779    -0.00300
Br1100     Br  0.90492045  0.36151051  0.20164425    -0.04600
C1101       C  0.93031914  0.26270319  0.34731492    -0.12000
C1102       C  0.91508069  0.26151722  0.36257327     0.03400
C1103       C  0.87509172  0.26024897  0.36495450    -0.12600
C1104       C  0.84983167  0.26010831  0.35242638     0.18300
C1105       C  0.86445167  0.26078117  0.33727374    -0.09600
C1106       C  0.90431946  0.26209354  0.33481809    -0.02600
H1107       H  0.86386221  0.25995463  0.37665008     0.04800
C1108       C  0.80838540  0.25968143  0.35530898     0.20300
H1109       H  0.91511747  0.26286055  0.32302938     0.10000
C1110       C  0.80861919  0.29957264  0.35583664    -0.16000
C1111       C  0.76945079  0.30019689  0.35753833     0.03000
C1112       C  0.72934568  0.26039998  0.35898641    -0.11300
C1113       C  0.72934548  0.22047260  0.35891950    -0.01300
C1114       C  0.76855212  0.21992746  0.35689313    -0.06500
H1115       H  0.83929281  0.33025064  0.35462196     0.06000
H1116       H  0.69865307  0.18967115  0.35979760     0.09400
Br1117     Br  0.83089801  0.26014360  0.31965308    -0.06200
Br1118     Br  0.94800086  0.26469155  0.38071976    -0.03100
Br1119     Br  0.77249209  0.35624383  0.35802636    -0.00300
Br1120     Br  0.76645352  0.16448038  0.35547344    -0.04600
C1121       C  0.06130534  0.32572405  0.31469111    -0.12000
C1122       C  0.04186241  0.32104190  0.30003726     0.03400
C1123       C  0.06494634  0.35156245  0.28839210    -0.12600
C1124       C  0.10694258  0.38747610  0.29115416     0.18300
C1125       C  0.12643603  0.39212208  0.30577661    -0.09600
C1126       C  0.10391487  0.36080340  0.31729891    -0.02600
H1127       H  0.04960398  0.34791212  0.27720088     0.04800
C1128       C  0.12750439  0.42105589  0.27889987     0.20300
H1129       H  0.11875821  0.36525229  0.32862371     0.10000
C1130       C  0.10789726  0.44595177  0.27502915    -0.16000
C1131       C  0.12202568  0.47393555  0.26221034     0.03000
C1132       C  0.15610325  0.47657046  0.25267226    -0.11300
C1133       C  0.17750109  0.45369112  0.25726292    -0.01300
C1134       C  0.16341773  0.42597043  0.27016573    -0.06500
H1135       H  0.08083915  0.44302013  0.28193571     0.06000
H1136       H  0.20466284  0.45636030  0.25056619     0.09400
Br1137     Br  0.18159167  0.44252316  0.31107439    -0.06200
Br1138     Br  0.98408170  0.27371057  0.29523186    -0.03100
Br1139     Br  0.09394612  0.50828481  0.25908028    -0.00300
Br1140     Br  0.19280883  0.39384205  0.27477694    -0.04600
C1141       C  0.02581085  0.16775406  0.39512459    -0.12000
C1142       C  0.02908722  0.13042438  0.39888473     0.03400
C1143       C  0.01037404  0.10739678  0.41253432    -0.12600
C1144       C  0.98860487  0.12100025  0.42270182     0.18300
C1145       C  0.98471438  0.15785107  0.41895047    -0.09600
C1146       C  0.00277467  0.18061254  0.40510867    -0.02600
H1147       H  0.01341432  0.07903045  0.41537997     0.04800
C1148       C  0.97264233  0.09741892  0.43751925     0.20300
H1149       H  0.00061610  0.20960082  0.40250450     0.10000
C1150       C  0.00331332  0.10437567  0.44908308    -0.16000
C1151       C  0.99048511  0.08008011  0.46280319     0.03000
C1152       C  0.94587601  0.04811677  0.46516938    -0.11300
C1153       C  0.91509871  0.04175959  0.45360437    -0.01300
C1154       C  0.92826619  0.06572219  0.43977777    -0.06500
H1155       H  0.03761576  0.12850862  0.44731101     0.06000
H1156       H  0.88094149  0.01690628  0.45506877     0.09400
Br1157     Br  0.95777938  0.17981748  0.43286701    -0.06200
Br1158     Br  0.05803704  0.10863959  0.38578578    -0.03100
Br1159     Br  0.03556781  0.09323354  0.47788598    -0.00300
Br1160     Br  0.88533627  0.05223981  0.42387315    -0.04600
C1161       C  0.16145538  0.24344207  0.36517477    -0.12000
C1162       C  0.18873914  0.24861667  0.37798940     0.03400
C1163       C  0.23051301  0.25428602  0.37562449    -0.12600
C1164       C  0.24610431  0.25503443  0.36069988     0.18300
C1165       C  0.21988754  0.25136309  0.34786947    -0.09600
C1166       C  0.17798298  0.24598977  0.35015299    -0.02600
H1167       H  0.25075551  0.25734738  0.38552431     0.04800
C1168       C  0.28845862  0.25637262  0.35895022     0.20300
H1169       H  0.15768014  0.24209830  0.34018852     0.10000
C1170       C  0.28838393  0.21659260  0.35798936    -0.16000
C1171       C  0.32777754  0.21600258  0.35758512     0.03000
C1172       C  0.36809596  0.25581492  0.35767206    -0.11300
C1173       C  0.36819522  0.29570768  0.35844876    -0.01300
C1174       C  0.32869372  0.29615619  0.35942021    -0.06500
H1175       H  0.25750250  0.18583684  0.35791121     0.06000
H1176       H  0.39906641  0.32644935  0.35885284     0.09400
Br1177     Br  0.23977100  0.25212453  0.32715013    -0.06200
Br1178     Br  0.17195689  0.24948391  0.39909338    -0.03100
Br1179     Br  0.32468836  0.16001604  0.35683097    -0.00300
Br1180     Br  0.33106666  0.35140650  0.36204926    -0.04600
C1181       C  0.49452990  0.92080589  0.03820426    -0.12000
C1182       C  0.52795817  0.95317444  0.02873182     0.03400
C1183       C  0.56756070  0.95317406  0.02663457    -0.12600
C1184       C  0.57449294  0.92116730  0.03364213     0.18300
C1185       C  0.54108112  0.88851320  0.04277683    -0.09600
C1186       C  0.50190451  0.88873715  0.04508444    -0.02600
H1187       H  0.59328119  0.97851303  0.01960486     0.04800
C1188       C  0.61719541  0.92295287  0.03176173     0.20300
H1189       H  0.47673437  0.86302700  0.05216055     0.10000
C1190       C  0.64832467  0.94083173  0.04367511    -0.16000
C1191       C  0.68839575  0.94159126  0.04257853     0.03000
C1192       C  0.69814575  0.92498208  0.02924116    -0.11300
C1193       C  0.66729092  0.90769344  0.01723339    -0.01300
C1194       C  0.62674798  0.90595090  0.01852159    -0.06500
H1195       H  0.64117046  0.95379260  0.05393683     0.06000
H1196       H  0.67413976  0.89413689  0.00706596     0.09400
Br1197     Br  0.54697113  0.84206372  0.05195941    -0.06200
Br1198     Br  0.52297600  0.99942297  0.01888910    -0.03100
Br1199     Br  0.72911948  0.96656706  0.05943498    -0.00300
Br1200     Br  0.58440472  0.87769653  0.00239501    -0.04600
C1201       C  0.27125309  0.71294614  0.13224081    -0.12000
C1202       C  0.29083934  0.70723710  0.11888040     0.03400
C1203       C  0.30715350  0.73955175  0.10734606    -0.12600
C1204       C  0.30386870  0.77751294  0.10878506     0.18300
C1205       C  0.28251871  0.78234877  0.12174193    -0.09600
C1206       C  0.26642012  0.75019921  0.13335169    -0.02600
H1207       H  0.32257821  0.73511279  0.09719427     0.04800
C1208       C  0.32322600  0.81143522  0.09657115     0.20300
H1209       H  0.25097638  0.75482627  0.14346180     0.10000
C1210       C  0.29983474  0.80571445  0.08283682    -0.16000
C1211       C  0.31957022  0.83353194  0.07013930     0.03000
C1212       C  0.36403887  0.86722772  0.07099604    -0.11300
C1213       C  0.38661496  0.87411821  0.08506097    -0.01300
C1214       C  0.36638181  0.84694031  0.09784781    -0.06500
H1215       H  0.26652581  0.77851827  0.08182190     0.06000
H1216       H  0.42048529  0.90020133  0.08600829     0.09400
Br1217     Br  0.27496207  0.83237493  0.12400745    -0.06200
Br1218     Br  0.29359405  0.65481403  0.11535206    -0.03100
Br1219     Br  0.28508202  0.82083890  0.05162853    -0.00300
Br1220     Br  0.39937128  0.85841981  0.11664213    -0.04600
C1221       C  0.47734568  0.13868871  0.91828818    -0.12000
C1222       C  0.50594515  0.13977087  0.93004555     0.03400
C1223       C  0.48874505  0.11375505  0.94332898    -0.12600
C1224       C  0.44338084  0.08691830  0.94536090     0.18300
C1225       C  0.41472104  0.08690123  0.93401684    -0.09600
C1226       C  0.43171533  0.11228468  0.92061697    -0.02600
H1227       H  0.51093206  0.11455032  0.95218089     0.04800
C1228       C  0.42663681  0.05867844  0.95927895     0.20300
H1229       H  0.40896005  0.11127688  0.91196403     0.10000
C1230       C  0.42521603  0.07710961  0.97350199    -0.16000
C1231       C  0.40863905  0.05078258  0.98673822     0.03000
C1232       C  0.39307464  0.00538149  0.98581851    -0.11300
C1233       C  0.39548570  0.98713762  0.97170926    -0.01300
C1234       C  0.41252991  0.01353321  0.95851440    -0.06500
H1235       H  0.43661713  0.11192068  0.97425922     0.06000
H1236       H  0.38345790  0.95221085  0.97090047     0.09400
Br1237     Br  0.35214178  0.05350044  0.93653046    -0.06200
Br1238     Br  0.56846336  0.17801963  0.92942253    -0.03100
Br1239     Br  0.40760965  0.07786671  0.00587051    -0.00300
Br1240     Br  0.41647539  0.98690573  0.93969033    -0.04600
C1241       C  0.05633616  0.92301823  0.02516771    -0.12000
C1242       C  0.06303263  0.89246702  0.03378361     0.03400
C1243       C  0.10274213  0.89264152  0.03245061    -0.12600
C1244       C  0.13613700  0.92245700  0.02267942     0.18300
C1245       C  0.12968555  0.95275811  0.01411235    -0.09600
C1246       C  0.09024915  0.95288394  0.01541713    -0.02600
H1247       H  0.10742105  0.86889558  0.03891449     0.04800
C1248       C  0.17721949  0.92106153  0.02122823     0.20300
H1249       H  0.08632560  0.97677653  0.00874968     0.10000
C1250       C  0.18708178  0.90862229  0.00706322    -0.16000
C1251       C  0.22781737  0.91179325  0.00463433     0.03000
C1252       C  0.25940961  0.92753646  0.01654484    -0.11300
C1253       C  0.24822247  0.93676283  0.03109859    -0.01300
C1254       C  0.20746726  0.93374584  0.03349952    -0.06500
H1255       H  0.16337788  0.89752195  0.99772458     0.06000
H1256       H  0.27208363  0.94856912  0.04038886     0.09400
Br1257     Br  0.17406981  0.99531422  0.00066024    -0.06200
Br1258     Br  0.01940900  0.84772771  0.04693708    -0.03100
Br1259     Br  0.23818767  0.89336766  0.98497066    -0.00300
Br1260     Br  0.19588436  0.95033831  0.05332436    -0.04600
C1261       C  0.28392086  0.53631073  0.63271811    -0.12000
C1262       C  0.32826229  0.55971072  0.62754023     0.03400
C1263       C  0.34052932  0.54678539  0.61399991    -0.12600
C1264       C  0.30996309  0.51094065  0.60527985     0.18300
C1265       C  0.26615367  0.48728731  0.61036298    -0.09600
C1266       C  0.25349971  0.50001016  0.62389404    -0.02600
H1267       H  0.37443591  0.56491108  0.61020887     0.04800
C1268       C  0.32505707  0.49935760  0.59093451     0.20300
H1269       H  0.21939302  0.48150117  0.62739485     0.10000
C1270       C  0.33140929  0.46299037  0.59086515    -0.16000
C1271       C  0.35100413  0.45467004  0.57815080     0.03000
C1272       C  0.36428262  0.48284324  0.56520517    -0.11300
C1273       C  0.35699766  0.51858809  0.56517111    -0.01300
C1274       C  0.33753987  0.52692927  0.57785157    -0.06500
H1275       H  0.32281078  0.44212991  0.60099729     0.06000
H1276       H  0.36728026  0.54064921  0.55533084     0.09400
Br1277     Br  0.22219707  0.43820720  0.59896156    -0.06200
Br1278     Br  0.37500593  0.60892276  0.63819336    -0.03100
Br1279     Br  0.36346726  0.40760571  0.57972326    -0.00300
Br1280     Br  0.32951774  0.57697179  0.57694849    -0.04600
C1281       C  0.69932118  0.74775827  0.52307017    -0.12000
C1282       C  0.66048780  0.74624028  0.52837927     0.03400
C1283       C  0.62143631  0.70593878  0.52951446    -0.12600
C1284       C  0.61979049  0.66677321  0.52523478     0.18300
C1285       C  0.65759651  0.66826627  0.51917484    -0.09600
C1286       C  0.69694144  0.70850573  0.51813932    -0.02600
H1287       H  0.59213585  0.70505213  0.53388999     0.04800
C1288       C  0.57866119  0.62477313  0.52785503     0.20300
H1289       H  0.72611273  0.70885272  0.51392890     0.10000
C1290       C  0.54988607  0.60355169  0.51549089    -0.16000
C1291       C  0.50914132  0.56560729  0.51800776     0.03000
C1292       C  0.49654916  0.54898895  0.53315735    -0.11300
C1293       C  0.52575682  0.56991389  0.54542424    -0.01300
C1294       C  0.56669998  0.60713233  0.54285365    -0.06500
H1295       H  0.55881048  0.61704614  0.50392271     0.06000
H1296       H  0.51675151  0.55708663  0.55707647     0.09400
Br1297     Br  0.65728576  0.61590172  0.51284686    -0.06200
Br1298     Br  0.65754553  0.79780212  0.53358874    -0.03100
Br1299     Br  0.47084014  0.53968850  0.50059216    -0.00300
Br1300     Br  0.60553437  0.63242874  0.56015112    -0.04600
C1301       C  0.27876134  0.28811940  0.51925506    -0.12000
C1302       C  0.25855452  0.27615030  0.53397941     0.03400
C1303       C  0.21720149  0.23848548  0.53556032    -0.12600
C1304       C  0.19528173  0.21254448  0.52271126     0.18300
C1305       C  0.21464852  0.22478564  0.50800297    -0.09600
C1306       C  0.25613389  0.26203105  0.50638347    -0.02600
H1307       H  0.20212153  0.22918408  0.54689479     0.04800
C1308       C  0.15165535  0.17332580  0.52474085     0.20300
H1309       H  0.27064155  0.27073614  0.49495032     0.10000
C1310       C  0.11433651  0.17768148  0.52352386    -0.16000
C1311       C  0.07230800  0.14080098  0.52427811     0.03000
C1312       C  0.06725055  0.09888542  0.52646203    -0.11300
C1313       C  0.10466869  0.09472070  0.52810477    -0.01300
C1314       C  0.14676406  0.13155963  0.52717930    -0.06500
H1315       H  0.11797524  0.20973652  0.52150621     0.06000
H1316       H  0.10106121  0.06267020  0.52999548     0.09400
Br1317     Br  0.18525582  0.19165054  0.48984826    -0.06200
Br1318     Br  0.28606767  0.30789636  0.55254883    -0.03100
Br1319     Br  0.02312894  0.14894019  0.52092136    -0.00300
Br1320     Br  0.19656527  0.12335348  0.52885360    -0.04600
C1321       C  0.41610535  0.35469533  0.48998185    -0.12000
C1322       C  0.41597175  0.31523772  0.48688115     0.03400
C1323       C  0.43463992  0.31089355  0.47321170    -0.12600
C1324       C  0.45415593  0.34554488  0.46259693     0.18300
C1325       C  0.45711742  0.38597661  0.46615493    -0.09600
C1326       C  0.43818477  0.39033797  0.47980247    -0.02600
H1327       H  0.43310024  0.27999795  0.47067703     0.04800
C1328       C  0.46794164  0.33739448  0.44742963     0.20300
H1329       H  0.43896457  0.42098661  0.48209555     0.10000
C1330       C  0.43688708  0.31998181  0.43547750    -0.16000
C1331       C  0.44744214  0.30867795  0.42125225     0.03000
C1332       C  0.49008533  0.31569445  0.41875937    -0.11300
C1333       C  0.52129902  0.33371162  0.43068229    -0.01300
C1334       C  0.51025793  0.34376572  0.44503869    -0.06500
H1335       H  0.40405328  0.31448672  0.43733564     0.06000
H1336       H  0.55393994  0.33848232  0.42901076     0.09400
Br1337     Br  0.48516271  0.43540312  0.45246819    -0.06200
Br1338     Br  0.39178867  0.26660708  0.50105472    -0.03100
Br1339     Br  0.40279087  0.28479683  0.40556992    -0.00300
Br1340     Br  0.55307565  0.36386213  0.46126592    -0.04600
C1341       C  0.70345157  0.51244687  0.73096893    -0.12000
C1342       C  0.71138160  0.47802652  0.73487757     0.03400
C1343       C  0.69329236  0.45357246  0.74839992    -0.12600
C1344       C  0.66617821  0.46190220  0.75799679     0.18300
C1345       C  0.65639063  0.49471941  0.75370956    -0.09600
C1346       C  0.67496656  0.51966416  0.74028264    -0.02600
H1347       H  0.70002372  0.42759281  0.75136989     0.04800
C1348       C  0.64844979  0.43593695  0.77239727     0.20300
H1349       H  0.66823097  0.54567798  0.73738603     0.10000
C1350       C  0.67635775  0.44437880  0.78512087    -0.16000
C1351       C  0.66089599  0.41954122  0.79874845     0.03000
C1352       C  0.61661187  0.38554067  0.79979397    -0.11300
C1353       C  0.58850255  0.37853907  0.78725846    -0.01300
C1354       C  0.60424532  0.40253010  0.77352948    -0.06500
H1355       H  0.71032808  0.47038143  0.78442877     0.06000
H1356       H  0.55438403  0.35322042  0.78793828     0.09400
Br1357     Br  0.61914030  0.50760137  0.76616989    -0.06200
Br1358     Br  0.74408524  0.46095004  0.72161105    -0.03100
Br1359     Br  0.70104378  0.43518603  0.81579735    -0.00300
Br1360     Br  0.56486355  0.38661214  0.75629706    -0.04600
C1361       C  0.83885961  0.59731300  0.70102476    -0.12000
C1362       C  0.86814525  0.60549430  0.71344038     0.03400
C1363       C  0.90950999  0.61041028  0.71063432    -0.12600
C1364       C  0.92284408  0.60771287  0.69561256     0.18300
C1365       C  0.89498006  0.60238884  0.68309146    -0.09600
C1366       C  0.85347793  0.59757243  0.68585152    -0.02600
H1367       H  0.93093762  0.61491602  0.72031465     0.04800
C1368       C  0.96302966  0.60457558  0.69370635     0.20300
H1369       H  0.83167093  0.59154182  0.67615600     0.10000
C1370       C  0.96106655  0.56523928  0.69791657    -0.16000
C1371       C  0.99846495  0.56099235  0.69757554     0.03000
C1372       C  0.03908297  0.59627485  0.69246897    -0.11300
C1373       C  0.04083809  0.63577010  0.68812707    -0.01300
C1374       C  0.00346861  0.64035973  0.68902788    -0.06500
H1375       H  0.93019224  0.53779045  0.70181694     0.06000
H1376       H  0.07174753  0.66375457  0.68457179     0.09400
Br1377     Br  0.91085350  0.59821228  0.66219996    -0.06200
Br1378     Br  0.85411528  0.61071907  0.73451491    -0.03100
Br1379     Br  0.99086167  0.50580788  0.70423170    -0.00300
Br1380     Br  0.00962037  0.69668192  0.68488495    -0.04600
C1381       C  0.39377302  0.58516462  0.69197312    -0.12000
C1382       C  0.39380098  0.54503794  0.69232284     0.03400
C1383       C  0.43337911  0.54499502  0.69070978    -0.12600
C1384       C  0.47311077  0.58439950  0.68879994     0.18300
C1385       C  0.47320141  0.62442674  0.68863643    -0.09600
C1386       C  0.43372926  0.62454495  0.69016326    -0.02600
H1387       H  0.43309159  0.51406042  0.69061516     0.04800
C1388       C  0.51382606  0.58310806  0.68602965     0.20300
H1389       H  0.43420494  0.65557113  0.68985473     0.10000
C1390       C  0.52510228  0.57921245  0.67083505    -0.16000
C1391       C  0.56469464  0.58058383  0.66757303     0.03000
C1392       C  0.59438995  0.58689711  0.67969916    -0.11300
C1393       C  0.58171944  0.58844149  0.69501795    -0.01300
C1394       C  0.54170770  0.58639377  0.69822456    -0.06500
H1395       H  0.50303887  0.57536197  0.66144646     0.06000
H1396       H  0.60360123  0.59275556  0.70451520     0.09400
Br1397     Br  0.52630094  0.67961758  0.68601208    -0.06200
Br1398     Br  0.34077879  0.48921951  0.69362699    -0.03100
Br1399     Br  0.57465821  0.57135496  0.64641692    -0.00300
Br1400     Br  0.52655100  0.58896072  0.71934612    -0.04600
C1401       C  0.72640931  0.65537203  0.64726363    -0.12000
C1402       C  0.77139880  0.68800090  0.64698950     0.03400
C1403       C  0.78934102  0.71365654  0.63368477    -0.12600
C1404       C  0.76334024  0.70739232  0.62060043     0.18300
C1405       C  0.71920790  0.67367272  0.62058959    -0.09600
C1406       C  0.70116060  0.64819077  0.63383348    -0.02600
H1407       H  0.82340664  0.73959961  0.63370975     0.04800
C1408       C  0.78204964  0.73789920  0.60740930     0.20300
H1409       H  0.66694516  0.62280738  0.63364519     0.10000
C1410       C  0.81093432  0.73410224  0.59723160    -0.16000
C1411       C  0.82853431  0.76219607  0.58445423     0.03000
C1412       C  0.81755870  0.79531109  0.58184334    -0.11300
C1413       C  0.78868701  0.79884421  0.59222079    -0.01300
C1414       C  0.77108843  0.77069570  0.60488793    -0.06500
H1415       H  0.81915577  0.70860338  0.59908694     0.06000
H1416       H  0.77978990  0.82382795  0.59052517     0.09400
Br1417     Br  0.68210640  0.66165056  0.60284004    -0.06200
Br1418     Br  0.80951978  0.70182265  0.66455591    -0.03100
Br1419     Br  0.86454662  0.75110481  0.57063598    -0.00300
Br1420     Br  0.73251582  0.77854880  0.61855184    -0.04600
C1421       C  0.15413594  0.88682978  0.86512295    -0.12000
C1422       C  0.17970434  0.89036971  0.85191946     0.03400
C1423       C  0.22145799  0.92748782  0.85005414    -0.12600
C1424       C  0.23960368  0.96029676  0.86143221     0.18300
C1425       C  0.21520934  0.95524480  0.87498873    -0.09600
C1426       C  0.17304679  0.91937571  0.87658707    -0.02600
H1427       H  0.23967011  0.93100171  0.83953502     0.04800
C1428       C  0.28256327  0.00073846  0.85873096     0.20300
H1429       H  0.15509280  0.91697944  0.88706582     0.10000
C1430       C  0.28458819  0.04150870  0.85975284    -0.16000
C1431       C  0.32454496  0.08073639  0.85879712     0.03000
C1432       C  0.36365783  0.07986399  0.85617118    -0.11300
C1433       C  0.36146963  0.03923014  0.85407830    -0.01300
C1434       C  0.32141969  0.99976928  0.85545999    -0.06500
H1435       H  0.25483690  0.04282103  0.86168038     0.06000
H1436       H  0.39126983  0.03810733  0.85201559     0.09400
Br1437     Br  0.23774664  0.99543562  0.89208096    -0.06200
Br1438     Br  0.16062749  0.84698863  0.83580361    -0.03100
Br1439     Br  0.32326255  0.13444691  0.86093539    -0.00300
Br1440     Br  0.32243237  0.94588630  0.85375173    -0.04600
C1441       C  0.01560024  0.83057555  0.89365500    -0.12000
C1442       C  0.02351008  0.87271098  0.89811251     0.03400
C1443       C  0.00570382  0.87784566  0.91191147    -0.12600
C1444       C  0.97882465  0.84163854  0.92127028     0.18300
C1445       C  0.96748893  0.79929661  0.91613244    -0.09600
C1446       C  0.98612502  0.79407238  0.90253141    -0.02600
H1447       H  0.01314840  0.91039917  0.91544823     0.04800
C1448       C  0.96393636  0.84909794  0.93646013     0.20300
H1449       H  0.97884484  0.76140437  0.89925693     0.10000
C1450       C  0.92023752  0.83882120  0.93838283    -0.16000
C1451       C  0.90594006  0.84786851  0.95232782     0.03000
C1452       C  0.93564671  0.86743705  0.96475501    -0.11300
C1453       C  0.97937422  0.87743259  0.96279353    -0.01300
C1454       C  0.99356711  0.86838488  0.94884237    -0.06500
H1455       H  0.89740906  0.82469717  0.92884057     0.06000
H1456       H  0.00268101  0.89245002  0.97215893     0.09400
Br1457     Br  0.92825108  0.74779874  0.92765269    -0.06200
Br1458     Br  0.05641763  0.92444937  0.88567197    -0.03100
Br1459     Br  0.84662266  0.83653282  0.95310887    -0.00300
Br1460     Br  0.05372876  0.88269916  0.94721935    -0.04600
C1461       C  0.72535598  0.43442307  0.86003106    -0.12000
C1462       C  0.76547322  0.43480005  0.86061165     0.03400
C1463       C  0.80492881  0.47471613  0.85985901    -0.12600
C1464       C  0.80494870  0.51446037  0.85857754     0.18300
C1465       C  0.76472762  0.51411766  0.85843654    -0.09600
C1466       C  0.72527538  0.47418272  0.85928873    -0.02600
H1467       H  0.83574598  0.47477627  0.86008024     0.04800
C1468       C  0.84728758  0.55533393  0.85642528     0.20300
H1469       H  0.69442384  0.47406823  0.85891598     0.10000
C1470       C  0.86112005  0.57060420  0.84136050    -0.16000
C1471       C  0.90274462  0.60668816  0.83859093     0.03000
C1472       C  0.93097248  0.62901691  0.85112304    -0.11300
C1473       C  0.91666728  0.61417746  0.86626582    -0.01300
C1474       C  0.87551140  0.57693830  0.86893921    -0.06500
H1475       H  0.83979256  0.55360225  0.83166858     0.06000
H1476       H  0.93824077  0.63046456  0.87596936     0.09400
Br1477     Br  0.76180405  0.56694470  0.85688848    -0.06200
Br1478     Br  0.76775090  0.38173477  0.86304823    -0.03100
Br1479     Br  0.91872065  0.62404310  0.81740849    -0.00300
Br1480     Br  0.85987171  0.55518400  0.88968190    -0.04600
C1481       C  0.06674470  0.69363661  0.82092421    -0.12000
C1482       C  0.06895545  0.65503850  0.81872483     0.03400
C1483       C  0.08760518  0.64949600  0.80522326    -0.12600
C1484       C  0.10457627  0.68192738  0.79369858     0.18300
C1485       C  0.10374467  0.72117936  0.79607239    -0.09600
C1486       C  0.08528098  0.72692119  0.80966616    -0.02600
H1487       H  0.08839784  0.61936988  0.80360491     0.04800
C1488       C  0.12040493  0.67253587  0.77901691     0.20300
H1489       H  0.08351549  0.75658556  0.81108966     0.10000
C1490       C  0.08980934  0.64027318  0.76908383    -0.16000
C1491       C  0.10306342  0.62793322  0.75560606     0.03000
C1492       C  0.14838320  0.64807528  0.75176369    -0.11300
C1493       C  0.17878620  0.68128485  0.76164257    -0.01300
C1494       C  0.16527163  0.69307703  0.77520631    -0.06500
H1495       H  0.05517114  0.62430341  0.77191354     0.06000
H1496       H  0.21355766  0.69740947  0.75909078     0.09400
Br1497     Br  0.12454499  0.76640553  0.78063091    -0.06200
Br1498     Br  0.04796862  0.60913812  0.83395909    -0.03100
Br1499     Br  0.05660623  0.58433837  0.74302426    -0.00300
Br1500     Br  0.20946832  0.73539633  0.78868366    -0.04600
C1501       C  0.29593873  0.10358726  0.23244386    -0.12000
C1502       C  0.29331385  0.08014336  0.24607555     0.03400
C1503       C  0.32206816  0.10150795  0.25828975    -0.12600
C1504       C  0.35266662  0.14636349  0.25748942     0.18300
C1505       C  0.35357069  0.17059446  0.24439213    -0.09600
C1506       C  0.32554520  0.14905348  0.23192508    -0.02600
H1507       H  0.32027530  0.08309065  0.26859302     0.04800
C1508       C  0.38293557  0.16647514  0.27061333     0.20300
H1509       H  0.32758078  0.16774920  0.22168086     0.10000
C1510       C  0.41879519  0.15972314  0.27205690    -0.16000
C1511       C  0.44490994  0.17305767  0.28536071     0.03000
C1512       C  0.43558619  0.19439827  0.29738936    -0.11300
C1513       C  0.40006435  0.20173737  0.29573089    -0.01300
C1514       C  0.37336010  0.18724648  0.28261284    -0.06500
H1515       H  0.42573730  0.14291895  0.26295151     0.06000
H1516       H  0.39197576  0.21730460  0.30495576     0.09400
Br1517     Br  0.39242779  0.23278858  0.24301357    -0.06200
Br1518     Br  0.24935080  0.01985736  0.24937106    -0.03100
Br1519     Br  0.49279884  0.16148638  0.28620599    -0.00300
Br1520     Br  0.32226717  0.19344690  0.28206063    -0.04600
C1521       C  0.23058464  0.97471606  0.19877040    -0.12000
C1522       C  0.23664311  0.96210745  0.18391694     0.03400
C1523       C  0.22932434  0.91962463  0.18152432    -0.12600
C1524       C  0.21684349  0.88965843  0.19381965     0.18300
C1525       C  0.21196599  0.90264870  0.20873117    -0.09600
C1526       C  0.21827306  0.94466098  0.21104655    -0.02600
H1527       H  0.23481088  0.91036375  0.17014921     0.04800
C1528       C  0.21384865  0.84683229  0.19128530     0.20300
H1529       H  0.21431113  0.95415551  0.22257583     0.10000
C1530       C  0.25270891  0.84589384  0.18867578    -0.16000
C1531       C  0.25205754  0.80599064  0.18766278     0.03000
C1532       C  0.21203442  0.76639804  0.18922335    -0.11300
C1533       C  0.17286003  0.76720163  0.19088147    -0.01300
C1534       C  0.17349418  0.80710113  0.19205232    -0.06500
H1535       H  0.28375403  0.87632449  0.18778492     0.06000
H1536       H  0.14188791  0.73675365  0.19171041     0.09400
Br1537     Br  0.20037029  0.86560788  0.22650792    -0.06200
Br1538     Br  0.25976281  0.00294577  0.16701735    -0.03100
Br1539     Br  0.30621447  0.80693150  0.18364991    -0.00300
Br1540     Br  0.11865599  0.80551790  0.19489923    -0.04600
C1541       C  0.99613075  0.98881791  0.08652132    -0.12000
C1542       C  0.99230624  0.01555551  0.09790353     0.03400
C1543       C  0.02116644  0.03039479  0.11051380    -0.12600
C1544       C  0.05404339  0.01913169  0.11214911     0.18300
C1545       C  0.05620017  0.99046159  0.10126508    -0.09600
C1546       C  0.02761664  0.97584435  0.08860226    -0.02600
H1547       H  0.01816898  0.05119887  0.11908327     0.04800
C1548       C  0.08614097  0.03870527  0.12504062     0.20300
H1549       H  0.03077307  0.95493216  0.08012303     0.10000
C1550       C  0.08784044  0.01180180  0.13672688    -0.16000
C1551       C  0.11588564  0.02989800  0.14953144     0.03000
C1552       C  0.14290037  0.07603113  0.15083217    -0.11300
C1553       C  0.14163933  0.10257174  0.13889163    -0.01300
C1554       C  0.11377871  0.08451205  0.12618020    -0.06500
H1555       H  0.06632683  0.97656353  0.13609500     0.06000
H1556       H  0.16223281  0.13794394  0.13948976     0.09400
Br1557     Br  0.09840809  0.97132786  0.10268889    -0.06200
Br1558     Br  0.94710946  0.03104054  0.09747694    -0.03100
Br1559     Br  0.11280070  0.98977640  0.16522014    -0.00300
Br1560     Br  0.11502662  0.12425946  0.11067314    -0.04600
C1561       C  0.20441641  0.20250525  0.18559753    -0.12000
C1562       C  0.16780249  0.20868152  0.18484347     0.03400
C1563       C  0.17343659  0.25063045  0.18664677    -0.12600
C1564       C  0.21505590  0.28688851  0.18946360     0.18300
C1565       C  0.25122751  0.28045462  0.19130233    -0.09600
C1566       C  0.24574081  0.23838294  0.18935191    -0.02600
H1567       H  0.14523051  0.25512881  0.18568256     0.04800
C1568       C  0.21963880  0.33101828  0.19003738     0.20300
H1569       H  0.27406755  0.23405057  0.19015378     0.10000
C1570       C  0.22266380  0.35087112  0.20436576    -0.16000
C1571       C  0.22247859  0.39054429  0.20532182     0.03000
C1572       C  0.21956830  0.41129524  0.19167393    -0.11300
C1573       C  0.21750404  0.39154757  0.17733966    -0.01300
C1574       C  0.21726291  0.35178682  0.17645159    -0.06500
H1575       H  0.22371243  0.33465320  0.21488720     0.06000
H1576       H  0.21572258  0.40693193  0.16671165     0.09400
Br1577     Br  0.30880601  0.32850786  0.19569271    -0.06200
Br1578     Br  0.10899606  0.16068948  0.18201643    -0.03100
Br1579     Br  0.22238367  0.41201522  0.22568310    -0.00300
Br1580     Br  0.21299063  0.32678027  0.15638225    -0.04600
C1581       C  0.36617945  0.08158443  0.35597478    -0.12000
C1582       C  0.34547976  0.06283819  0.34174610     0.03400
C1583       C  0.30622508  0.02266168  0.34162237    -0.12600
C1584       C  0.28605447  0.00130470  0.35544228     0.18300
C1585       C  0.30481634  0.02135808  0.36965392    -0.09600
C1586       C  0.34479866  0.06096428  0.36982961    -0.02600
H1587       H  0.29113616  0.00798310  0.33065041     0.04800
C1588       C  0.24664779  0.95729215  0.35447741     0.20300
H1589       H  0.35957028  0.07532586  0.38086643     0.10000
C1590       C  0.25215182  0.92158309  0.35080427    -0.16000
C1591       C  0.21600318  0.88041374  0.34750142     0.03000
C1592       C  0.17316722  0.87433735  0.34803994    -0.11300
C1593       C  0.16766822  0.90981122  0.35235545    -0.01300
C1594       C  0.20406780  0.95126518  0.35530783    -0.06500
H1595       H  0.28493097  0.92614933  0.35005549     0.06000
H1596       H  0.13508704  0.90582008  0.35272157     0.09400
Br1597     Br  0.27730397  0.99600141  0.38904292    -0.06200
Br1598     Br  0.36680136  0.09159413  0.32216757    -0.03100
Br1599     Br  0.22754301  0.83392176  0.34255000    -0.00300
Br1600     Br  0.19454641  0.99949301  0.35922263    -0.04600
C1601       C  0.10344761  0.74649944  0.31339285    -0.12000
C1602       C  0.12662007  0.76786761  0.29979435     0.03400
C1603       C  0.13170595  0.74369381  0.28799632    -0.12600
C1604       C  0.11406824  0.69821465  0.28931247     0.18300
C1605       C  0.08985367  0.67647107  0.30265719    -0.09600
C1606       C  0.08444087  0.70062433  0.31449424    -0.02600
H1607       H  0.15006163  0.76063665  0.27771904     0.04800
C1608       C  0.12469674  0.67577657  0.27697628     0.20300
H1609       H  0.06666075  0.68366391  0.32485078     0.10000
C1610       C  0.16874759  0.68739028  0.27500301    -0.16000
C1611       C  0.18226486  0.67283039  0.26223603     0.03000
C1612       C  0.15134627  0.64619419  0.25092238    -0.11300
C1613       C  0.10674824  0.63280723  0.25330788    -0.01300
C1614       C  0.09333778  0.64759009  0.26614325    -0.06500
H1615       H  0.19304096  0.70880771  0.28334443     0.06000
H1616       H  0.08240113  0.61206532  0.24487057     0.09400
Br1617     Br  0.06582040  0.61457566  0.30568243    -0.06200
Br1618     Br  0.15071050  0.82960081  0.29619467    -0.03100
Br1619     Br  0.24326481  0.68950539  0.26138991    -0.00300
Br1620     Br  0.03254200  0.63091038  0.26782171    -0.04600
C1621       C  0.93767016  0.87031879  0.46173611    -0.12000
C1622       C  0.95945560  0.90022982  0.44949392     0.03400
C1623       C  0.96730544  0.88513909  0.43549328    -0.12600
C1624       C  0.95382479  0.84061676  0.43341275     0.18300
C1625       C  0.93320003  0.81109721  0.44573248    -0.09600
C1626       C  0.92488894  0.82592270  0.45961240    -0.02600
H1627       H  0.98323176  0.90807602  0.42607408     0.04800
C1628       C  0.96110107  0.82516739  0.41834828     0.20300
H1629       H  0.90853181  0.80252616  0.46887072     0.10000
C1630       C  0.00370004  0.83583671  0.41400146    -0.16000
C1631       C  0.01121952  0.81823246  0.40055339     0.03000
C1632       C  0.97533556  0.78891779  0.39118892    -0.11300
C1633       C  0.93293514  0.78014091  0.39530527    -0.01300
C1634       C  0.92572667  0.79823495  0.40860644    -0.06500
H1635       H  0.03114519  0.85694204  0.42138209     0.06000
H1636       H  0.90495776  0.75875959  0.38818172     0.09400
Br1637     Br  0.91669176  0.75030599  0.44431530    -0.06200
Br1638     Br  0.97645427  0.96121776  0.45066020    -0.03100
Br1639     Br  0.07092919  0.83370225  0.39649307    -0.00300
Br1640     Br  0.86695488  0.78540079  0.41300761    -0.04600
C1641       C  0.90966993  0.65815910  0.35816622    -0.12000
C1642       C  0.91373806  0.62208652  0.35311268     0.03400
C1643       C  0.87621590  0.58043435  0.35193235    -0.12600
C1644       C  0.83449174  0.57418692  0.35526762     0.18300
C1645       C  0.83010906  0.61041363  0.35936950    -0.09600
C1646       C  0.86746738  0.65178195  0.36090996    -0.02600
H1647       H  0.87963292  0.55257690  0.34865497     0.04800
C1648       C  0.79623276  0.52930846  0.35532260     0.20300
H1649       H  0.86347937  0.67909018  0.36448164     0.10000
C1650       C  0.78805378  0.50316475  0.36851197    -0.16000
C1651       C  0.75161943  0.46083257  0.36919469     0.03000
C1652       C  0.72291815  0.44383727  0.35647121    -0.11300
C1653       C  0.73158261  0.46980697  0.34313637    -0.01300
C1654       C  0.76780831  0.51249311  0.34255850    -0.06500
H1655       H  0.81000241  0.51588796  0.37834681     0.06000
H1656       H  0.70958952  0.45725529  0.33331674     0.09400
Br1657     Br  0.77386440  0.60472103  0.36338920    -0.06200
Br1658     Br  0.96911495  0.62623688  0.34853270    -0.03100
Br1659     Br  0.74356000  0.42688455  0.38749557    -0.00300
Br1660     Br  0.77726375  0.54726746  0.32434188    -0.04600
C1661       C  0.26292137  0.29988451  0.03529386    -0.12000
C1662       C  0.24372195  0.28815202  0.02046413     0.03400
C1663       C  0.20568777  0.24735889  0.01829028    -0.12600
C1664       C  0.18533780  0.21875859  0.03082031     0.18300
C1665       C  0.20475028  0.23049174  0.04556555    -0.09600
C1666       C  0.24351215  0.27031612  0.04760650    -0.02600
H1667       H  0.19055478  0.23888733  0.00695650     0.04800
C1668       C  0.14214672  0.17866025  0.02866130     0.20300
H1669       H  0.25758896  0.27903726  0.05908278     0.10000
C1670       C  0.13784276  0.13734010  0.03135055    -0.16000
C1671       C  0.09671747  0.09919829  0.03059460     0.03000
C1672       C  0.05945037  0.10191485  0.02649148    -0.11300
C1673       C  0.06357420  0.14310351  0.02383518    -0.01300
C1674       C  0.10452660  0.18142174  0.02501992    -0.06500
H1675       H  0.16631902  0.13494747  0.03459093     0.06000
H1676       H  0.03478483  0.14547520  0.02108546     0.09400
Br1677     Br  0.17731096  0.19587256  0.06367613    -0.06200
Br1678     Br  0.26414543  0.32844469  0.00334820    -0.03100
Br1679     Br  0.09198789  0.04464520  0.03688246    -0.00300
Br1680     Br  0.10696921  0.23689543  0.02277222    -0.04600
C1681       C  0.27490673  0.52533094  0.13209796    -0.12000
C1682       C  0.30865158  0.51511199  0.13366978     0.03400
C1683       C  0.32020736  0.49785096  0.12110072    -0.12600
C1684       C  0.29860827  0.49057075  0.10684210     0.18300
C1685       C  0.26462347  0.50050777  0.10528920    -0.09600
C1686       C  0.25302398  0.51773417  0.11787720    -0.02600
H1687       H  0.34570444  0.48942981  0.12251696     0.04800
C1688       C  0.30997515  0.46987184  0.09408919     0.20300
H1689       H  0.22649523  0.52473981  0.11662576     0.10000
C1690       C  0.29710935  0.42528877  0.09519965    -0.16000
C1691       C  0.30553856  0.40392984  0.08316472     0.03000
C1692       C  0.32692087  0.42728236  0.06954835    -0.11300
C1693       C  0.34165823  0.47245412  0.06882010    -0.01300
C1694       C  0.33347196  0.49376607  0.08094351    -0.06500
H1695       H  0.28011434  0.40692530  0.10546649     0.06000
H1696       H  0.35852164  0.49110500  0.05858960     0.09400
Br1697     Br  0.23166249  0.48885292  0.08647572    -0.06200
Br1698     Br  0.33765416  0.52123256  0.15307021    -0.03100
Br1699     Br  0.28898657  0.34357294  0.08650218    -0.00300
Br1700     Br  0.35525190  0.55556195  0.07906291    -0.04600
C1701       C  0.44967208  0.40523219  0.98645297    -0.12000
C1702       C  0.49118573  0.41119202  0.98231246     0.03400
C1703       C  0.49583628  0.39260138  0.96868752    -0.12600
C1704       C  0.45971619  0.36771727  0.95907603     0.18300
C1705       C  0.41798759  0.36016722  0.96346327    -0.09600
C1706       C  0.41318514  0.37885887  0.97709199    -0.02600
H1707       H  0.52785864  0.39768084  0.96552174     0.04800
C1708       C  0.46663241  0.35037263  0.94446266     0.20300
H1709       H  0.38112197  0.37386192  0.98013113     0.10000
C1710       C  0.45619033  0.30640478  0.94369100    -0.16000
C1711       C  0.46540176  0.28987173  0.93035792     0.03000
C1712       C  0.48460077  0.31744989  0.91739174    -0.11300
C1713       C  0.49473050  0.36142518  0.91822284    -0.01300
C1714       C  0.48620464  0.37803190  0.93163140    -0.06500
H1715       H  0.44220129  0.28531127  0.95369756     0.06000
H1716       H  0.50993721  0.38318068  0.90844803     0.09400
Br1717     Br  0.36719268  0.32592584  0.95088158    -0.06200
Br1718     Br  0.54236885  0.44241636  0.99510759    -0.03100
Br1719     Br  0.45565253  0.23115912  0.93123591    -0.00300
Br1720     Br  0.50269816  0.43892209  0.93203072    -0.04600
C1721       C  0.70179536  0.74261018  0.02720686    -0.12000
C1722       C  0.70144239  0.70401917  0.02239458     0.03400
C1723       C  0.66163737  0.66482542  0.02100895    -0.12600
C1724       C  0.62195360  0.66305741  0.02447469     0.18300
C1725       C  0.62213477  0.70075725  0.02989109    -0.09600
C1726       C  0.66193260  0.74025165  0.03122439    -0.02600
H1727       H  0.66154692  0.63548854  0.01714449     0.04800
C1728       C  0.58079490  0.62138771  0.02218745     0.20300
H1729       H  0.66155630  0.76945307  0.03494212     0.10000
C1730       C  0.55931800  0.59497492  0.03501641    -0.16000
C1731       C  0.52249888  0.55328967  0.03311065     0.03000
C1732       C  0.50690155  0.53750449  0.01806139    -0.11300
C1733       C  0.52793888  0.56482488  0.00527331    -0.01300
C1734       C  0.56452297  0.60650379  0.00724356    -0.06500
H1735       H  0.57211536  0.60635682  0.04653077     0.06000
H1736       H  0.51626400  0.55345852  0.99365274     0.09400
Br1737     Br  0.56860877  0.69985162  0.03494755    -0.06200
Br1738     Br  0.75394601  0.70177616  0.01815000    -0.03100
Br1739     Br  0.49798373  0.51860149  0.05144597    -0.00300
Br1740     Br  0.59161618  0.64196523  0.98924824    -0.04600
C1741       C  0.97136619  0.45299136  0.56397881    -0.12000
C1742       C  0.96526963  0.48160438  0.57381617     0.03400
C1743       C  0.99203102  0.49928832  0.58692664    -0.12600
C1744       C  0.02536128  0.48962432  0.59023496     0.18300
C1745       C  0.03334372  0.46374222  0.57985376    -0.09600
C1746       C  0.00636823  0.44553377  0.56698616    -0.02600
H1747       H  0.98602633  0.51962120  0.59481486     0.04800
C1748       C  0.04997016  0.50446219  0.60493232     0.20300
H1749       H  0.01232166  0.42454015  0.55941221     0.10000
C1750       C  0.04245644  0.47324916  0.61641603    -0.16000
C1751       C  0.06654182  0.48540091  0.63018521     0.03000
C1752       C  0.09860999  0.52986669  0.63270211    -0.11300
C1753       C  0.10531359  0.56113623  0.62129890    -0.01300
C1754       C  0.08159316  0.54870204  0.60745603    -0.06500
H1755       H  0.01796374  0.43911983  0.61456201     0.06000
H1756       H  0.13012993  0.59524956  0.62293674     0.09400
Br1757     Br  0.08078861  0.45231094  0.58273963    -0.06200
Br1758     Br  0.91954278  0.49543899  0.57074022    -0.03100
Br1759     Br  0.05290353  0.43983280  0.64516875    -0.00300
Br1760     Br  0.09533811  0.59273275  0.59195803    -0.04600
C1761       C  0.89395870  0.31186122  0.53740448    -0.12000
C1762       C  0.89769351  0.28845697  0.55012916     0.03400
C1763       C  0.89259502  0.24682276  0.54789617    -0.12600
C1764       C  0.88469533  0.22773382  0.53316957     0.18300
C1765       C  0.87900294  0.25000027  0.52060359    -0.09600
C1766       C  0.88344373  0.29151989  0.52280750    -0.02600
H1767       H  0.89577481  0.22946837  0.55772488     0.04800
C1768       C  0.88422983  0.18549783  0.53123762     0.20300
H1769       H  0.88025952  0.30862556  0.51290801     0.10000
C1770       C  0.84602769  0.14791274  0.52610110    -0.16000
C1771       C  0.84459619  0.10749291  0.52454840     0.03000
C1772       C  0.88193585  0.10410145  0.52827388    -0.11300
C1773       C  0.91947660  0.14147491  0.53389520    -0.01300
C1774       C  0.92115891  0.18185610  0.53519438    -0.06500
H1775       H  0.81693086  0.14987579  0.52352140     0.06000
H1776       H  0.94797733  0.13941874  0.53724905     0.09400
Br1777     Br  0.86781596  0.22653723  0.50002710    -0.06200
Br1778     Br  0.90876534  0.31012967  0.57103352    -0.03100
Br1779     Br  0.78956153  0.05756249  0.51866530    -0.00300
Br1780     Br  0.97543745  0.23125096  0.54200807    -0.04600
C1781       C  0.86472768  0.53532199  0.51548566    -0.12000
C1782       C  0.90224151  0.57058748  0.52246384     0.03400
C1783       C  0.90497672  0.61152508  0.52398870    -0.12600
C1784       C  0.87116989  0.61819906  0.51863721     0.18300
C1785       C  0.83443241  0.58367272  0.51138034    -0.09600
C1786       C  0.83128319  0.54278098  0.51000750    -0.02600
H1787       H  0.93374398  0.63842957  0.52931664     0.04800
C1788       C  0.87511688  0.66167570  0.52031164     0.20300
H1789       H  0.80223590  0.51667145  0.50453562     0.10000
C1790       C  0.90572620  0.69660142  0.51118087    -0.16000
C1791       C  0.90840177  0.73756761  0.51177632     0.03000
C1792       C  0.88042334  0.74391399  0.52173020    -0.11300
C1793       C  0.85030308  0.70921205  0.53103029    -0.01300
C1794       C  0.84759585  0.66825098  0.53044543    -0.06500
H1795       H  0.92693624  0.69168645  0.50335315     0.06000
H1796       H  0.82843798  0.71384879  0.53860457     0.09400
Br1797     Br  0.78836178  0.59112444  0.50262730    -0.06200
Br1798     Br  0.95201142  0.56665876  0.52940161    -0.03100
Br1799     Br  0.95025065  0.78363266  0.49870181    -0.00300
Br1800     Br  0.80593389  0.62224557  0.54363789    -0.04600
C1801       C  0.78788677  0.39497953  0.48879477    -0.12000
C1802       C  0.79324038  0.36716850  0.47835887     0.03400
C1803       C  0.76412260  0.34860211  0.46587574    -0.12600
C1804       C  0.72930185  0.35679820  0.46376799     0.18300
C1805       C  0.72193184  0.38153512  0.47486817    -0.09600
C1806       C  0.75124951  0.40063642  0.48712751    -0.02600
H1807       H  0.76974668  0.32924224  0.45741956     0.04800
C1808       C  0.70367578  0.34311607  0.44924991     0.20300
H1809       H  0.74597580  0.42107844  0.49520836     0.10000
C1810       C  0.67038792  0.29943187  0.44723257    -0.16000
C1811       C  0.64599272  0.28599146  0.43348364     0.03000
C1812       C  0.65506611  0.31665850  0.42142118    -0.11300
C1813       C  0.68743550  0.36061373  0.42379216    -0.01300
C1814       C  0.71213739  0.37379398  0.43739264    -0.06500
H1815       H  0.66316111  0.27582568  0.45643065     0.06000
H1816       H  0.69431458  0.38474288  0.41487530     0.09400
Br1817     Br  0.67310462  0.39136616  0.47345720    -0.06200
Br1818     Br  0.84140988  0.35633794  0.47972823    -0.03100
Br1819     Br  0.59891016  0.22623627  0.43240933    -0.00300
Br1820     Br  0.75845543  0.43375007  0.43898592    -0.04600
C1821       C  0.54167258  0.63466973  0.87167282    -0.12000
C1822       C  0.53197740  0.60381879  0.88366668     0.03400
C1823       C  0.53024478  0.56401517  0.88052465    -0.12600
C1824       C  0.53857394  0.55449463  0.86560605     0.18300
C1825       C  0.54707354  0.58458086  0.85354034    -0.09600
C1826       C  0.54815380  0.62419916  0.85659097    -0.02600
H1827       H  0.52337365  0.54078749  0.88983169     0.04800
C1828       C  0.54036631  0.51395616  0.86306276     0.20300
H1829       H  0.55587617  0.64763198  0.84729402     0.10000
C1830       C  0.50125974  0.47390114  0.86128424    -0.16000
C1831       C  0.50199540  0.43475761  0.85943495     0.03000
C1832       C  0.54242861  0.43537663  0.85950856    -0.11300
C1833       C  0.58155324  0.47562208  0.86131035    -0.01300
C1834       C  0.58075220  0.51476987  0.86298876    -0.06500
H1835       H  0.47005897  0.47306282  0.86151998     0.06000
H1836       H  0.61281538  0.47657310  0.86144794     0.09400
Br1837     Br  0.55907967  0.57334191  0.83292631    -0.06200
Br1838     Br  0.51995143  0.61379244  0.90449094    -0.03100
Br1839     Br  0.44670248  0.38120687  0.85803704    -0.00300
Br1840     Br  0.63535452  0.56862574  0.86551812    -0.04600
C1841       C  0.75000032  0.85626654  0.96888581    -0.12000
C1842       C  0.71143122  0.81479843  0.96937347     0.03400
C1843       C  0.68406938  0.79947722  0.95642018    -0.12600
C1844       C  0.69462423  0.82490033  0.94292312     0.18300
C1845       C  0.73261396  0.86656224  0.94250870    -0.09600
C1846       C  0.75985592  0.88213174  0.95549516    -0.02600
H1847       H  0.65472106  0.76739075  0.95678834     0.04800
C1848       C  0.66714635  0.80610563  0.92907058     0.20300
H1849       H  0.78947163  0.91398801  0.95498791     0.10000
C1850       C  0.63538702  0.81745970  0.92524666    -0.16000
C1851       C  0.60787414  0.79859983  0.91240928     0.03000
C1852       C  0.61170382  0.76716138  0.90335012    -0.11300
C1853       C  0.64456402  0.75705526  0.90711504    -0.01300
C1854       C  0.67224121  0.77639738  0.91973435    -0.06500
H1855       H  0.63173706  0.84073959  0.93237813     0.06000
H1856       H  0.64897048  0.73393884  0.90016871     0.09400
Br1857     Br  0.74937832  0.90209979  0.92418637    -0.06200
Br1858     Br  0.69363714  0.77865298  0.98758818    -0.03100
Br1859     Br  0.56494190  0.81590899  0.90853399    -0.00300
Br1860     Br  0.71715954  0.76185624  0.92365587    -0.04600
C1861       C  0.46031922  0.73725358  0.82111451    -0.12000
C1862       C  0.44332177  0.69224146  0.81749560     0.03400
C1863       C  0.42089247  0.67528670  0.80352424    -0.12600
C1864       C  0.41510545  0.70215233  0.79296173     0.18300
C1865       C  0.43332908  0.74702260  0.79617092    -0.09600
C1866       C  0.45554836  0.76413775  0.81008316    -0.02600
H1867       H  0.40676901  0.64061270  0.80106349     0.04800
C1868       C  0.38695326  0.68237246  0.77926458     0.20300
H1869       H  0.46883836  0.79881469  0.81228570     0.10000
C1870       C  0.34311296  0.67250291  0.77993544    -0.16000
C1871       C  0.31579742  0.65568933  0.76702411     0.03000
C1872       C  0.33228846  0.64840842  0.75320925    -0.11300
C1873       C  0.37573320  0.65701637  0.75264241    -0.01300
C1874       C  0.40321450  0.67421496  0.76554403    -0.06500
H1875       H  0.33027954  0.67832442  0.79050754     0.06000
H1876       H  0.38868582  0.65171010  0.74200084     0.09400
Br1877     Br  0.42824901  0.78604233  0.78188410    -0.06200
Br1878     Br  0.44654327  0.65086347  0.83116446    -0.03100
Br1879     Br  0.25583306  0.64182494  0.76885905    -0.00300
Br1880     Br  0.46305783  0.68792557  0.76373552    -0.04600
C1881       C  0.50790779  0.85813469  0.85825003    -0.12000
C1882       C  0.47324458  0.86650058  0.85540374     0.03400
C1883       C  0.48023825  0.90907589  0.85696342    -0.12600
C1884       C  0.52106833  0.94361762  0.86170268     0.18300
C1885       C  0.55434939  0.93457634  0.86599574    -0.09600
C1886       C  0.54775255  0.89211020  0.86413335    -0.02600
H1887       H  0.45387509  0.91543591  0.85422983     0.04800
C1888       C  0.52826906  0.98881089  0.86154993     0.20300
H1889       H  0.57433021  0.88602979  0.86679759     0.10000
C1890       C  0.50840605  0.00148133  0.87291582    -0.16000
C1891       C  0.51187652  0.04289785  0.87238713     0.03000
C1892       C  0.53476783  0.07200865  0.86014076    -0.11300
C1893       C  0.55484290  0.05939986  0.84884627    -0.01300
C1894       C  0.55189425  0.01824307  0.84948396    -0.06500
H1895       H  0.48981159  0.97889777  0.88214475     0.06000
H1896       H  0.57328561  0.08183804  0.83960578     0.09400
Br1897     Br  0.60900430  0.97918228  0.87446108    -0.06200
Br1898     Br  0.41508680  0.82078816  0.85011272    -0.03100
Br1899     Br  0.48329991  0.05743522  0.88830360    -0.00300
Br1900     Br  0.57956777  0.00315577  0.83339545    -0.04600
C1901       C  0.83635732  0.21151987  0.68055098    -0.12000
C1902       C  0.85223996  0.22363296  0.69580358     0.03400
C1903       C  0.89183269  0.26264924  0.69842223    -0.12600
C1904       C  0.91636075  0.28959555  0.68605021     0.18300
C1905       C  0.90066272  0.27757002  0.67085706    -0.09600
C1906       C  0.86091490  0.23901510  0.66823632    -0.02600
H1907       H  0.90419909  0.27144927  0.71012299     0.04800
C1908       C  0.95871968  0.32972430  0.68907415     0.20300
H1909       H  0.84947710  0.23004975  0.65644358     0.10000
C1910       C  0.99782992  0.33120320  0.68474561    -0.16000
C1911       C  0.03831139  0.36986511  0.68629022     0.03000
C1912       C  0.03993962  0.40826280  0.69203764    -0.11300
C1913       C  0.00088747  0.40547067  0.69737423    -0.01300
C1914       C  0.96048519  0.36680648  0.69585946    -0.06500
H1915       H  0.99675350  0.30216321  0.68002906     0.06000
H1916       H  0.00158937  0.43376031  0.70240997     0.09400
Br1917     Br  0.93264919  0.31253529  0.65331178    -0.06200
Br1918     Br  0.82423477  0.18641130  0.71330814    -0.03100
Br1919     Br  0.09002556  0.36694377  0.68135152    -0.00300
Br1920     Br  0.90833700  0.36667887  0.70249525    -0.04600
C1921       C  0.77147532  0.08106035  0.64803062    -0.12000
C1922       C  0.81162701  0.08150957  0.64599536     0.03400
C1923       C  0.81828508  0.06224654  0.63291513    -0.12600
C1924       C  0.78559027  0.04191541  0.62165963     0.18300
C1925       C  0.74490507  0.03986634  0.62386893    -0.09600
C1926       C  0.73808462  0.05936989  0.63698248    -0.02600
H1927       H  0.84933541  0.06316526  0.63148621     0.04800
C1928       C  0.79524171  0.02334013  0.60777405     0.20300
H1929       H  0.70716655  0.05875705  0.63829374     0.10000
C1930       C  0.77688384  0.97777620  0.60639390    -0.16000
C1931       C  0.78874113  0.95948420  0.59418279     0.03000
C1932       C  0.82006190  0.98715236  0.58304930    -0.11300
C1933       C  0.83755306  0.03281760  0.58438174    -0.01300
C1934       C  0.82544556  0.05086577  0.59652732    -0.06500
H1935       H  0.75394883  0.95635645  0.61509116     0.06000
H1936       H  0.86080549  0.05482935  0.57587676     0.09400
Br1937     Br  0.69868501  0.01242352  0.60892818    -0.06200
Br1938     Br  0.85823281  0.10604164  0.66098143    -0.03100
Br1939     Br  0.76258587  0.89683005  0.59412879    -0.00300
Br1940     Br  0.85083822  0.11346200  0.59722874    -0.04600
C1941       C  0.39762800  0.77035621  0.69533001    -0.12000
C1942       C  0.41722960  0.79101665  0.70949221     0.03400
C1943       C  0.45442576  0.83310609  0.70943301    -0.12600
C1944       C  0.47310828  0.85473089  0.69546049     0.18300
C1945       C  0.45539715  0.83308490  0.68139729    -0.09600
C1946       C  0.41795858  0.79133858  0.68139639    -0.02600
H1947       H  0.46851840  0.84929113  0.72031759     0.04800
C1948       C  0.50910445  0.90092689  0.69565491     0.20300
H1949       H  0.40383093  0.77590743  0.67041670     0.10000
C1950       C  0.55282073  0.91074853  0.69440754    -0.16000
C1951       C  0.58732959  0.95441154  0.69431867     0.03000
C1952       C  0.57817826  0.98909516  0.69555209    -0.11300
C1953       C  0.53422082  0.97894608  0.69672060    -0.01300
C1954       C  0.49986167  0.93536366  0.69666711    -0.06500
H1955       H  0.56009341  0.88431779  0.69361564     0.06000
H1956       H  0.52654767  0.00506814  0.69770055     0.09400
Br1957     Br  0.48032178  0.86033842  0.66192231    -0.06200
Br1958     Br  0.39615208  0.76277380  0.72920080    -0.03100
Br1959     Br  0.64614007  0.96427382  0.69365690    -0.00300
Br1960     Br  0.44061626  0.92410175  0.69783336    -0.04600
C1961       C  0.63960008  0.12752995  0.72395109    -0.12000
C1962       C  0.59998302  0.12624785  0.72797585     0.03400
C1963       C  0.59734313  0.14587969  0.74171239    -0.12600
C1964       C  0.63315515  0.16600768  0.75183927     0.18300
C1965       C  0.67269260  0.16759346  0.74783901    -0.09600
C1966       C  0.67596567  0.14932615  0.73384775    -0.02600
H1967       H  0.56661859  0.14405120  0.74480175     0.04800
C1968       C  0.62666196  0.18044637  0.76722072     0.20300
H1969       H  0.70628978  0.14981976  0.73116465     0.10000
C1970       C  0.60705855  0.14894350  0.77891283    -0.16000
C1971       C  0.59738019  0.15995104  0.79334819     0.03000
C1972       C  0.60666746  0.20324958  0.79630870    -0.11300
C1973       C  0.62785196  0.23526773  0.78469611    -0.01300
C1974       C  0.63775328  0.22411185  0.77022780    -0.06500
H1975       H  0.59909311  0.11541585  0.77675866     0.06000
H1976       H  0.63559711  0.26877999  0.78671110     0.09400
Br1977     Br  0.72162864  0.19080214  0.76175359    -0.06200
Br1978     Br  0.54807905  0.09787899  0.71540980    -0.03100
Br1979     Br  0.57373761  0.11472128  0.80874400    -0.00300
Br1980     Br  0.66523584  0.26888777  0.75473240    -0.04600
loop_ 
_geom_bond_atom_site_label_1 
_geom_bond_atom_site_label_2 
_geom_bond_distance 
_geom_bond_site_symmetry_2 
_ccdc_geom_bond_type 
C1            N2   1.356       .  A
C1            N6   1.362       .  A
C1         C1961   1.484       .  S
N2            C3   1.357       .  A
C3            N4   1.361       .  A
C3         C1952   1.481   1_545  S
N4            C5   1.361       .  A
C5            N6   1.364       .  A
C5           C11   1.481       .  S
C7            N8   1.354       .  A
C7           N12   1.364       .  A
C7         C1921   1.487       .  S
N8            C9   1.353       .  A
C9           N10   1.359       .  A
C9         C1901   1.479       .  S
N10          C11   1.363       .  A
C11          N12   1.368       .  A
C13          N14   1.359       .  A
C13          N18   1.358       .  A
C13        C1861   1.493       .  S
N14          C15   1.361       .  A
C15          N16   1.360       .  A
C15          C21   1.470       .  S
N16          C17   1.358       .  A
C17          N18   1.357       .  A
C17        C1881   1.480       .  S
C19          N20   1.358       .  A
C19          N24   1.356       .  A
C19        C1852   1.484       .  S
N20          C21   1.361       .  A
C21          N22   1.362       .  A
N22          C23   1.359       .  A
C23          N24   1.354       .  A
C23        C1821   1.477       .  S
C25          N26   1.360       .  A
C25          N30   1.353       .  A
C25        C1801   1.482       .  S
N26          C27   1.365       .  A
C27          N28   1.361       .  A
C27          C33   1.473       .  S
N28          C29   1.358       .  A
C29          N30   1.354       .  A
C29        C1781   1.486       .  S
C31          N32   1.359       .  A
C31          N36   1.354       .  A
C31        C1741   1.483       .  S
N32          C33   1.365       .  A
C33          N34   1.363       .  A
N34          C35   1.360       .  A
C35          N36   1.352       .  A
C35        C1761   1.488       .  S
C37          N38   1.354   1_556  A
C37          N42   1.360   1_556  A
C37        C1701   1.477       .  S
N38          C39   1.355       .  A
C39          N40   1.357       .  A
C39        C1732   1.477       .  S
N40          C41   1.359       .  A
C41          N42   1.362       .  A
C41          C47   1.470       .  S
C43          N44   1.354       .  A
C43          N48   1.361       .  A
C43        C1692   1.484       .  S
N44          C45   1.355       .  A
C45          N46   1.357       .  A
C45        C1661   1.474       .  S
N46          C47   1.359       .  A
C47          N48   1.363       .  A
C49          N50   1.358       .  A
C49          N54   1.360   1_655  A
C49        C1632   1.492       .  S
N50          C51   1.358       .  A
C51          N52   1.357       .  A
C51        C1641   1.483       .  S
N52          C53   1.359   1_655  A
C53          N54   1.362       .  A
C53          C57   1.471       .  S
C55          N56   1.359       .  A
C55          N60   1.358       .  A
C55        C1601   1.483       .  S
N56          C57   1.361       .  A
C57          N58   1.359       .  A
N58          C59   1.359       .  A
C59          N60   1.358       .  A
C59        C1592   1.480       .  S
C61          N62   1.356       .  A
C61          N66   1.360       .  A
C61        C1552   1.491       .  S
N62          C63   1.355       .  A
C63          N64   1.358       .  A
C63        C1561   1.478       .  S
N64          C65   1.362       .  A
C65          N66   1.364       .  A
C65          C69   1.471       .  S
C67          N68   1.360       .  A
C67          N72   1.355       .  A
C67        C1501   1.479       .  S
N68          C69   1.361       .  A
C69          N70   1.359       .  A
N70          C71   1.358       .  A
C71          N72   1.355       .  A
C71        C1521   1.474   1_545  S
C73          N74   1.355       .  A
C73          N78   1.359       .  A
C73        C1481   1.484       .  S
N74          C75   1.356   1_455  A
C75          N76   1.360       .  A
C75        C1472   1.478       .  S
N76          C77   1.361   1_655  A
C77          N78   1.365       .  A
C77          C83   1.474       .  S
C79          N80   1.356       .  A
C79          N84   1.364       .  A
C79        C1441   1.491       .  S
N80          C81   1.358       .  A
C81          N82   1.354       .  A
C81        C1421   1.489       .  S
N82          C83   1.357       .  A
C83          N84   1.365       .  A
C85          N86   1.357       .  A
C85          N90   1.357       .  A
C85        C1401   1.482       .  S
N86          C87   1.356       .  A
C87          N88   1.363       .  A
C87        C1392   1.485       .  S
N88          C89   1.363       .  A
C89          N90   1.359       .  A
C89          C93   1.474       .  S
C91          N92   1.361       .  A
C91          N96   1.357       .  A
C91        C1341   1.482       .  S
N92          C93   1.362       .  A
C93          N94   1.363       .  A
N94          C95   1.359       .  A
C95          N96   1.356       .  A
C95        C1361   1.486       .  S
C97          N98   1.358       .  A
C97         N102   1.355       .  A
C97        C1321   1.477       .  S
N98          C99   1.361       .  A
C99         N100   1.360       .  A
C99         C105   1.472       .  S
N100        C101   1.360       .  A
C101        N102   1.356       .  A
C101       C1301   1.484       .  S
C103        N104   1.362       .  A
C103        N108   1.357       .  A
C103       C1272   1.478       .  S
N104        C105   1.363       .  A
C105        N106   1.359       .  A
N106        C107   1.357       .  A
C107        N108   1.357       .  A
C107       C1292   1.475       .  S
C109        N110   1.362   1_556  A
C109        N114   1.356   1_556  A
C109       C1232   1.471   1_565  S
N110        C111   1.363       .  A
C111        N112   1.360       .  A
C111        C119   1.473       .  S
N112        C113   1.356       .  A
C113        N114   1.355       .  A
C113       C1252   1.474       .  S
C115        N116   1.356       .  A
C115        N120   1.355       .  A
C115       C1212   1.481       .  S
N116        C117   1.360       .  A
C117        N118   1.364       .  A
C117       C1181   1.492       .  S
N118        C119   1.363       .  A
C119        N120   1.359       .  A
C121        N122   1.353       .  A
C121        N126   1.358       .  A
C121       C1141   1.476       .  S
N122        C123   1.353       .  A
C123        N124   1.361       .  A
C123       C1161   1.483       .  S
N124        C125   1.364       .  A
C125        N126   1.362       .  A
C125        C129   1.472       .  S
C127        N128   1.357       .  A
C127        N132   1.355   1_455  A
C127       C1121   1.472       .  S
N128        C129   1.359       .  A
C129        N130   1.362   1_455  A
N130        C131   1.361       .  A
C131        N132   1.357       .  A
C131       C1101   1.485       .  S
C133        N134   1.356       .  A
C133        N138   1.358       .  A
C133       C1061   1.473       .  S
N134        C135   1.355       .  A
C135        N136   1.362       .  A
C135       C1081   1.485       .  S
N136        C137   1.363       .  A
C137        N138   1.359       .  A
C137        C141   1.474       .  S
C139        N140   1.359       .  A
C139        N144   1.357   1_545  A
C139       C1032   1.478       .  S
N140        C141   1.360       .  A
C141        N142   1.363       .  A
N142        C143   1.359   1_545  A
C143        N144   1.355       .  A
C143       C1052   1.473       .  S
C145        N146   1.361       .  A
C145        N150   1.351       .  A
C145       C1012   1.478       .  S
N146        C147   1.365       .  A
C147        N148   1.366       .  A
C147        C153   1.479       .  S
N148        C149   1.362       .  A
C149        N150   1.350       .  A
C149        C981   1.487       .  S
C151        N152   1.359       .  A
C151        N156   1.354       .  A
C151        C972   1.476       .  S
N152        C153   1.363       .  A
C153        N154   1.364       .  A
N154        C155   1.362       .  A
C155        N156   1.355       .  A
C155        C941   1.492       .  S
C157        N158   1.356       .  A
C157        N162   1.357       .  A
C157        C921   1.480       .  S
N158        C159   1.357       .  A
C159        N160   1.360       .  A
C159        C165   1.466       .  S
N160        C161   1.357       .  A
C161        N162   1.356       .  A
C161        C901   1.485       .  S
C163        N164   1.356       .  A
C163        N168   1.356       .  A
C163        C892   1.477       .  S
N164        C165   1.358       .  A
C165        N166   1.361       .  A
N166        C167   1.359       .  A
C167        N168   1.356       .  A
C167        C872   1.479   1_545  S
C169        N170   1.356       .  A
C169        N174   1.359       .  A
C169        C821   1.478   1_565  S
N170        C171   1.356       .  A
C171        N172   1.360       .  A
C171        C852   1.477       .  S
N172        C173   1.361       .  A
C173        N174   1.360       .  A
C173        C179   1.474       .  S
C175        N176   1.358       .  A
C175        N180   1.360       .  A
C175        C781   1.501       .  S
N176        C177   1.357       .  A
C177        N178   1.359       .  A
C177        C801   1.483       .  S
N178        C179   1.362       .  A
C179        N180   1.362       .  A
C181        N182   1.356       .  A
C181        N186   1.360       .  A
C181        C741   1.473       .  S
N182        C183   1.356       .  A
C183        N184   1.356       .  A
C183        C772   1.481       .  S
N184        C185   1.359       .  A
C185        N186   1.359       .  A
C185        C189   1.469       .  S
C187        N188   1.353       .  A
C187        N192   1.356       .  A
C187        C732   1.486       .  S
N188        C189   1.358       .  A
C189        N190   1.364       .  A
N190        C191   1.364       .  A
C191        N192   1.357       .  A
C191        C701   1.495       .  S
C193        N194   1.360   1_556  A
C193        N198   1.358   1_556  A
C193        C681   1.476       .  S
N194        C195   1.362       .  A
C195        N196   1.359       .  A
C195        C201   1.470       .  S
N196        C197   1.355       .  A
C197        N198   1.357       .  A
C197        C661   1.485       .  S
C199        N200   1.355       .  A
C199        N204   1.354       .  A
C199        C621   1.482       .  S
N200        C201   1.360       .  A
C201        N202   1.362       .  A
N202        C203   1.361       .  A
C203        N204   1.357       .  A
C203        C652   1.493       .  S
C205        N206   1.357       .  A
C205        N210   1.355       .  A
C205        C592   1.473       .  S
N206        C207   1.359       .  A
C207        N208   1.362       .  A
C207        C215   1.470       .  S
N208        C209   1.360       .  A
C209        N210   1.356       .  A
C209        C601   1.476       .  S
C211        N212   1.353       .  A
C211        N216   1.358   1_655  A
C211        C552   1.472       .  S
N212        C213   1.353       .  A
C213        N214   1.358       .  A
C213        C572   1.474       .  S
N214        C215   1.362   1_655  A
C215        N216   1.361       .  A
O217        C228   1.295       .  A
O217       Eu253   2.481       .  S
O218        C229   1.287       .  A
O218       Eu252   2.438       .  S
O219        C230   1.291       .  A
O219       Eu225   2.460       .  S
O220        C231   1.290       .  A
O220       Eu225   2.454       .  S
O221        C231   1.290       .  A
O221       Eu255   2.454       .  S
O222        C230   1.294       .  A
O222       Eu254   2.472       .  S
O223        C229   1.291       .  A
O223       Eu225   2.458       .  S
O224        C228   1.292       .  A
O224       Eu225   2.465       .  S
Eu225       O235   2.364       .  S
Eu225       O227   2.349       .  S
Eu225       O226   2.353       .  S
Eu225       O233   2.354       .  S
O226       Eu255   2.354       .  S
O226       Eu252   2.350       .  S
O227       Eu253   2.357       .  S
O227       Eu254   2.354       .  S
C228       C1972   1.490       .  S
C229       C1461   1.465       .  S
C230       C1352   1.484       .  S
C231        C561   1.466       .  S
H232        O233   0.966       .  S
O233       Eu254   2.350       .  S
O233       Eu252   2.354       .  S
H234        O235   0.966       .  S
O235       Eu253   2.350       .  S
O235       Eu255   2.365       .  S
O236        C259   1.289       .  A
O236       Eu252   2.448       .  S
O237        C260   1.292       .  A
O237       Eu253   2.464       .  S
O238        C261   1.292       .  A
O238       Eu254   2.464       .  S
O239        C262   1.289       .  A
O239       Eu255   2.448       .  S
O240        C263   1.289       .  A
O240       Eu255   2.452       .  S
O241        C264   1.292       .  A
O241       Eu254   2.465       .  S
O242        C265   1.291       .  A
O242       Eu256   2.458       .  S
O243        C266   1.291       .  A
O243       Eu256   2.454       .  S
O244        C265   1.290       .  A
O244       Eu254   2.456       .  S
O245        C266   1.293       .  A
O245       Eu255   2.476       .  S
O246        C261   1.291       .  A
O246       Eu252   2.461       .  S
O247        C264   1.290       .  A
O247       Eu253   2.453       .  S
O248        C263   1.294       .  A
O248       Eu253   2.476       .  S
O249        C262   1.293       .  A
O249       Eu252   2.472       .  S
O250        C259   1.293       .  A
O250       Eu256   2.472       .  S
O251        C260   1.290       .  A
O251       Eu256   2.452       .  S
Eu252       O270   2.347       .  S
Eu252       O258   2.349       .  S
Eu253       O257   2.355       .  S
Eu253       O268   2.365       .  S
Eu254       O268   2.357       .  S
Eu254       O258   2.356       .  S
Eu255       O257   2.345       .  S
Eu255       O270   2.352       .  S
Eu256       O257   2.353       .  S
Eu256       O268   2.360       .  S
Eu256       O270   2.350       .  S
Eu256       O258   2.347       .  S
C259       C1712   1.478       .  S
C260       C1432   1.477       .  S
C261       C1832   1.477       .  S
C262        C692   1.480       .  S
C263       C1892   1.476       .  S
C264        C932   1.468       .  S
C265        C612   1.480       .  S
C266       C1221   1.491       .  S
H267        O268   0.966       .  S
H269        O270   0.959       .  S
O271        C282   1.290       .  A
O271       Eu307   2.452   1_556  S
O272        C283   1.289       .  A
O272       Eu306   2.444   1_545  S
O273        C284   1.293       .  A
O273       Eu279   2.475       .  S
O274        C285   1.292       .  A
O274       Eu279   2.456   1_546  S
O275        C285   1.292       .  A
O275       Eu309   2.463   1_546  S
O276        C284   1.289       .  A
O276       Eu308   2.448       .  S
O277        C283   1.290       .  A
O277       Eu279   2.451   1_545  S
O278        C282   1.290       .  A
O278       Eu279   2.455   1_556  S
Eu279       O289   2.359   1_554  S
Eu279       O281   2.347       .  S
Eu279       O280   2.356       .  S
Eu279       O287   2.350       .  S
O280       Eu309   2.353       .  S
O280       Eu306   2.347       .  S
O281       Eu307   2.357       .  S
O281       Eu308   2.354       .  S
C282       C1841   1.471       .  S
C283        C672   1.472       .  S
C284       C1192   1.474       .  S
C285        C541   1.482       .  S
H286        O287   0.969       .  S
O287       Eu308   2.353       .  S
O287       Eu306   2.354       .  S
H288        O289   0.965       .  S
O289       Eu307   2.349   1_556  S
O289       Eu309   2.356   1_556  S
O290        C313   1.290   1_545  A
O290       Eu306   2.454   1_545  S
O291        C314   1.291       .  A
O291       Eu307   2.462       .  S
O292        C315   1.293       .  A
O292       Eu308   2.467       .  S
O293        C316   1.290       .  A
O293       Eu309   2.456   1_445  S
O294        C317   1.292       .  A
O294       Eu309   2.467   1_556  S
O295        C318   1.292       .  A
O295       Eu308   2.463       .  S
O296        C319   1.292       .  A
O296       Eu310   2.464       .  S
O297        C320   1.287   1_655  A
O297       Eu310   2.442       .  S
O298        C319   1.290       .  A
O298       Eu308   2.453       .  S
O299        C320   1.293       .  A
O299       Eu309   2.459   1_455  S
O300        C315   1.287       .  A
O300       Eu306   2.439       .  S
O301        C318   1.288       .  A
O301       Eu307   2.442       .  S
O302        C317   1.293       .  A
O302       Eu307   2.473   1_556  S
O303        C316   1.290   1_655  A
O303       Eu306   2.458   1_545  S
O304        C313   1.292       .  A
O304       Eu310   2.462       .  S
O305        C314   1.290       .  A
O305       Eu310   2.451       .  S
Eu306       O324   2.345       .  S
Eu306       O312   2.353       .  S
Eu307       O311   2.341       .  S
Eu307       O322   2.358       .  S
Eu308       O322   2.354       .  S
Eu308       O312   2.348       .  S
Eu309       O311   2.347       .  S
Eu309       O324   2.359       .  S
Eu310       O311   2.357       .  S
Eu310       O322   2.344       .  S
Eu310       O324   2.351       .  S
Eu310       O312   2.341       .  S
C313       C1541   1.484       .  S
C314        C641   1.470       .  S
C315       C1021   1.476       .  S
C316       C1672   1.468       .  S
C317       C1452   1.487       .  S
C318       C1721   1.476       .  S
C319        C721   1.481       .  S
C320       C1241   1.486       .  S
H321        O322   0.972       .  S
H323        O324   0.968       .  S
O325        C336   1.293       .  A
O325       Eu361   2.466       .  S
O326        C337   1.292       .  A
O326       Eu360   2.468       .  S
O327        C338   1.292       .  A
O327       Eu333   2.460       .  S
O328        C339   1.292       .  A
O328       Eu333   2.464       .  S
O329        C339   1.290       .  A
O329       Eu363   2.448       .  S
O330        C338   1.290       .  A
O330       Eu362   2.456       .  S
O331        C337   1.290       .  A
O331       Eu333   2.451       .  S
O332        C336   1.290       .  A
O332       Eu333   2.457       .  S
Eu333       O343   2.368       .  S
Eu333       O335   2.342       .  S
Eu333       O334   2.347       .  S
Eu333       O341   2.358       .  S
O334       Eu363   2.353       .  S
O334       Eu360   2.347       .  S
O335       Eu361   2.345       .  S
O335       Eu362   2.345       .  S
C336       C1812   1.484       .  S
C337        C952   1.477       .  S
C338        C832   1.475       .  S
C339       C1112   1.472       .  S
H340        O341   0.966       .  S
O341       Eu362   2.351       .  S
O341       Eu360   2.348       .  S
H342        O343   0.969       .  S
O343       Eu361   2.358       .  S
O343       Eu363   2.365       .  S
O344        C367   1.289       .  A
O344       Eu360   2.447       .  S
O345        C368   1.291       .  A
O345       Eu361   2.463       .  S
O346        C369   1.291       .  A
O346       Eu362   2.459       .  S
O347        C370   1.293       .  A
O347       Eu363   2.461       .  S
O348        C371   1.291       .  A
O348       Eu363   2.464       .  S
O349        C372   1.291       .  A
O349       Eu362   2.458       .  S
O350        C373   1.291       .  A
O350       Eu364   2.461       .  S
O351        C374   1.289       .  A
O351       Eu364   2.444       .  S
O352        C373   1.290       .  A
O352       Eu362   2.451       .  S
O353        C374   1.292       .  A
O353       Eu363   2.463       .  S
O354        C369   1.290       .  A
O354       Eu360   2.456       .  S
O355        C372   1.289       .  A
O355       Eu361   2.446       .  S
O356        C371   1.291       .  A
O356       Eu361   2.459       .  S
O357        C370   1.289       .  A
O357       Eu360   2.452       .  S
O358        C367   1.292       .  A
O358       Eu364   2.462       .  S
O359        C368   1.291       .  A
O359       Eu364   2.459       .  S
Eu360       O378   2.354       .  S
Eu360       O366   2.352       .  S
Eu361       O365   2.348       .  S
Eu361       O376   2.357       .  S
Eu362       O376   2.352       .  S
Eu362       O366   2.348       .  S
Eu363       O365   2.346       .  S
Eu363       O378   2.351       .  S
Eu364       O365   2.350       .  S
Eu364       O376   2.355       .  S
Eu364       O378   2.357       .  S
Eu364       O366   2.346       .  S
C367       C1512   1.476       .  S
C368        C992   1.470       .  S
C369       C1581   1.480       .  S
C370       C1072   1.486       .  S
C371       C1652   1.475       .  S
C372       C1332   1.473       .  S
C373       C1172   1.470       .  S
C374        C752   1.469       .  S
H375        O376   0.967       .  S
H377        O378   0.959       .  S
O379        C390   1.292       .  A
O379       Eu415   2.461       .  S
O380        C391   1.290       .  A
O380       Eu414   2.462       .  S
O381        C392   1.291       .  A
O381       Eu387   2.461       .  S
O382        C393   1.290       .  A
O382       Eu387   2.453       .  S
O383        C393   1.290       .  A
O383       Eu417   2.455       .  S
O384        C392   1.291       .  A
O384       Eu416   2.454       .  S
O385        C391   1.296       .  A
O385       Eu387   2.487       .  S
O386        C390   1.291       .  A
O386       Eu387   2.461       .  S
Eu387       O397   2.360       .  S
Eu387       O389   2.358       .  S
Eu387       O388   2.351       .  S
Eu387       O395   2.348       .  S
O388       Eu417   2.358       .  S
O388       Eu414   2.353       .  S
O389       Eu415   2.353       .  S
O389       Eu416   2.354       .  S
C390       C1941   1.483       .  S
C391       C1492   1.501       .  S
C392        C861   1.477       .  S
C393       C1872   1.467       .  S
H394        O395   0.965       .  S
O395       Eu416   2.354       .  S
O395       Eu414   2.351       .  S
H396        O397   0.971       .  S
O397       Eu415   2.355       .  S
O397       Eu417   2.354       .  S
O398        C421   1.292       .  A
O398       Eu414   2.458       .  S
O399        C422   1.288       .  A
O399       Eu415   2.454       .  S
O400        C423   1.292       .  A
O400       Eu416   2.465       .  S
O401        C424   1.291       .  A
O401       Eu417   2.459       .  S
O402        C425   1.291       .  A
O402       Eu417   2.459       .  S
O403        C426   1.292       .  A
O403       Eu416   2.467       .  S
O404        C427   1.288       .  A
O404       Eu418   2.443       .  S
O405        C428   1.289       .  A
O405       Eu418   2.452       .  S
O406        C427   1.292       .  A
O406       Eu416   2.463       .  S
O407        C428   1.291       .  A
O407       Eu417   2.461       .  S
O408        C423   1.293       .  A
O408       Eu414   2.472       .  S
O409        C426   1.291       .  A
O409       Eu415   2.464       .  S
O410        C425   1.291       .  A
O410       Eu415   2.458       .  S
O411        C424   1.292       .  A
O411       Eu414   2.463       .  S
O412        C421   1.292       .  A
O412       Eu418   2.463       .  S
O413        C422   1.295       .  A
O413       Eu418   2.480       .  S
Eu414       O432   2.362       .  S
Eu414       O420   2.357       .  S
Eu415       O419   2.350       .  S
Eu415       O430   2.354       .  S
Eu416       O430   2.353       .  S
Eu416       O420   2.356       .  S
Eu417       O419   2.349       .  S
Eu417       O432   2.347       .  S
Eu418       O419   2.345       .  S
Eu418       O430   2.353       .  S
Eu418       O432   2.356       .  S
Eu418       O420   2.360       .  S
C421       C1912   1.484       .  S
C422       C1261   1.499       .  S
C423       C1372   1.491       .  S
C424        C581   1.482       .  S
C425       C1381   1.476       .  S
C426        C792   1.475       .  S
C427       C1752   1.478       .  S
C428        C912   1.475       .  S
H429        O430   0.957       .  S
H431        O432   0.973       .  S
O433        C444   1.291       .  A
O433       Eu469   2.462       .  S
O434        C445   1.289       .  A
O434       Eu468   2.454       .  S
O435        C446   1.294       .  A
O435       Eu441   2.474       .  S
O436        C447   1.291       .  A
O436       Eu441   2.458       .  S
O437        C447   1.291       .  A
O437       Eu471   2.461       .  S
O438        C446   1.291       .  A
O438       Eu470   2.457       .  S
O439        C445   1.293       .  A
O439       Eu441   2.465       .  S
O440        C444   1.293       .  A
O440       Eu441   2.476       .  S
Eu441       O451   2.359       .  S
Eu441       O443   2.352       .  S
Eu441       O442   2.356       .  S
Eu441       O449   2.353       .  S
O442       Eu471   2.347       .  S
O442       Eu468   2.348       .  S
O443       Eu469   2.356       .  S
O443       Eu470   2.356       .  S
C444       C1681   1.477       .  S
C445       C1041   1.491       .  S
C446       C1201   1.480       .  S
C447        C761   1.480       .  S
H448        O449   0.967       .  S
O449       Eu470   2.355       .  S
O449       Eu468   2.352       .  S
H450        O451   0.965       .  S
O451       Eu469   2.354       .  S
O451       Eu471   2.356       .  S
O452        C475   1.293       .  A
O452       Eu468   2.469       .  S
O453        C476   1.292       .  A
O453       Eu469   2.463       .  S
O454        C477   1.288       .  A
O454       Eu470   2.443       .  S
O455        C478   1.288       .  A
O455       Eu471   2.441       .  S
O456        C479   1.289       .  A
O456       Eu471   2.449       .  S
O457        C480   1.288       .  A
O457       Eu470   2.443       .  S
O458        C481   1.288       .  A
O458       Eu472   2.450       .  S
O459        C482   1.287       .  A
O459       Eu472   2.440       .  S
O460        C481   1.293       .  A
O460       Eu470   2.475       .  S
O461        C482   1.294       .  A
O461       Eu471   2.471       .  S
O462        C477   1.290       .  A
O462       Eu468   2.452       .  S
O463        C480   1.292       .  A
O463       Eu469   2.463       .  S
O464        C479   1.294       .  A
O464       Eu469   2.471       .  S
O465        C478   1.291       .  A
O465       Eu468   2.464       .  S
O466        C475   1.291       .  A
O466       Eu472   2.459       .  S
O467        C476   1.291       .  A
O467       Eu472   2.455       .  S
Eu468       O486   2.343       .  S
Eu468       O474   2.351       .  S
Eu469       O473   2.354       .  S
Eu469       O484   2.366       .  S
Eu470       O484   2.354       .  S
Eu470       O474   2.345       .  S
Eu471       O473   2.351       .  S
Eu471       O486   2.349       .  S
Eu472       O473   2.356       .  S
Eu472       O484   2.355       .  S
Eu472       O486   2.353       .  S
Eu472       O474   2.347       .  S
C475       C1612   1.487       .  S
C476       C1092   1.477       .  S
C477       C1532   1.462       .  S
C478       C1001   1.468       .  S
C479       C1572   1.486       .  S
C480        C632   1.480       .  S
C481        C712   1.472       .  S
C482       C1132   1.488       .  S
H483        O484   0.969       .  S
H485        O486   0.955       .  S
O487        C498   1.294       .  A
O487       Eu523   2.469       .  S
O488        C499   1.294       .  A
O488       Eu522   2.476       .  S
O489        C500   1.290       .  A
O489       Eu495   2.453       .  S
O490        C501   1.292       .  A
O490       Eu495   2.457       .  S
O491        C501   1.292       .  A
O491       Eu525   2.466       .  S
O492        C500   1.291       .  A
O492       Eu524   2.458       .  S
O493        C499   1.290       .  A
O493       Eu495   2.456       .  S
O494        C498   1.292       .  A
O494       Eu495   2.469       .  S
Eu495       O505   2.357       .  S
Eu495       O497   2.347       .  S
Eu495       O496   2.353       .  S
Eu495       O503   2.354       .  S
O496       Eu525   2.353       .  S
O496       Eu522   2.353       .  S
O497       Eu523   2.346       .  S
O497       Eu524   2.351       .  S
C498       C1932   1.495       .  S
C499       C1281   1.487       .  S
C500        C841   1.472       .  S
C501       C1412   1.487       .  S
H502        O503   0.968       .  S
O503       Eu524   2.354       .  S
O503       Eu522   2.350       .  S
H504        O505   0.959       .  S
O505       Eu523   2.360       .  S
O505       Eu525   2.365       .  S
O506        C529   1.292       .  A
O506       Eu522   2.460       .  S
O507        C530   1.292   1_655  A
O507       Eu523   2.465   1_545  S
O508        C531   1.290       .  A
O508       Eu524   2.464       .  S
O509        C532   1.290       .  A
O509       Eu525   2.459       .  S
O510        C533   1.291       .  A
O510       Eu525   2.461       .  S
O511        C534   1.293       .  A
O511       Eu524   2.470   1_545  S
O512        C535   1.289       .  A
O512       Eu526   2.450   1_545  S
O513        C536   1.288       .  A
O513       Eu526   2.450   1_455  S
O514        C535   1.292       .  A
O514       Eu524   2.464   1_545  S
O515        C536   1.294   1_655  A
O515       Eu525   2.466       .  S
O516        C531   1.292       .  A
O516       Eu522   2.457       .  S
O517        C534   1.292       .  A
O517       Eu523   2.458   1_545  S
O518        C533   1.292       .  A
O518       Eu523   2.460       .  S
O519        C532   1.290       .  A
O519       Eu522   2.458       .  S
O520        C529   1.291       .  A
O520       Eu526   2.466       .  S
O521        C530   1.290       .  A
O521       Eu526   2.455   1_445  S
Eu522       O540   2.357       .  S
Eu522       O528   2.352       .  S
Eu523       O527   2.349       .  S
Eu523       O538   2.362       .  S
Eu524       O538   2.360       .  S
Eu524       O528   2.349       .  S
Eu525       O527   2.346       .  S
Eu525       O540   2.360       .  S
Eu526       O527   2.349       .  S
Eu526       O538   2.359       .  S
Eu526       O540   2.356       .  S
Eu526       O528   2.346       .  S
C529       C1621   1.485       .  S
C530       C1312   1.471       .  S
C531        C961   1.496       .  S
C532       C1792   1.465       .  S
C533        C881   1.486   1_655  S
C534       C1772   1.487       .  S
C535       C1152   1.481       .  S
C536        C812   1.486       .  S
H537        O538   0.974   1_545  S
H539        O540   0.963       .  S
C541        C542   1.416       .  A
C541        C546   1.407       .  A
C542        C543   1.400       .  A
C542       Br558   1.921   1_655  S
C543        C544   1.399       .  A
C543        H547   1.084   1_655  S
C544        C548   1.473       .  S
C544        C545   1.406       .  A
C545        C546   1.397       .  A
C545       Br557   1.920       .  S
C546        H549   1.084       .  S
C548        C550   1.402       .  A
C548        C554   1.405       .  A
C550        C551   1.400       .  A
C550        H555   1.083       .  S
C551        C552   1.410       .  A
C551       Br559   1.919   1_655  S
C552        C553   1.404       .  A
C553        C554   1.395       .  A
C553        H556   1.084       .  S
C554       Br560   1.919       .  S
C561        C562   1.408       .  A
C561        C566   1.402       .  A
C562        C563   1.397       .  A
C562       Br578   1.919       .  S
C563        C564   1.401       .  A
C563        H567   1.084       .  S
C564        C568   1.471       .  S
C564        C565   1.407       .  A
C565        C566   1.397       .  A
C565       Br577   1.918       .  S
C566        H569   1.084       .  S
C568        C570   1.401       .  A
C568        C574   1.405       .  A
C570        C571   1.400       .  A
C570        H575   1.084       .  S
C571        C572   1.411       .  A
C571       Br579   1.914       .  S
C572        C573   1.404       .  A
C573        C574   1.394       .  A
C573        H576   1.084       .  S
C574       Br580   1.919       .  S
C581        C582   1.414       .  A
C581        C586   1.407       .  A
C582        C583   1.398       .  A
C582       Br598   1.921       .  S
C583        C584   1.400       .  A
C583        H587   1.084       .  S
C584        C588   1.477       .  S
C584        C585   1.405       .  A
C585        C586   1.401       .  A
C585       Br597   1.917       .  S
C586        H589   1.083       .  S
C588        C590   1.403       .  A
C588        C594   1.406       .  A
C590        C591   1.402       .  A
C590        H595   1.083       .  S
C591        C592   1.410       .  A
C591       Br599   1.917       .  S
C592        C593   1.402       .  A
C593        C594   1.396       .  A
C593        H596   1.084       .  S
C594       Br600   1.918       .  S
C601        C602   1.411       .  A
C601        C606   1.406       .  A
C602        C603   1.400       .  A
C602       Br618   1.917       .  S
C603        C604   1.402       .  A
C603        H607   1.084       .  S
C604        C608   1.474       .  S
C604        C605   1.405       .  A
C605        C606   1.397       .  A
C605       Br617   1.919       .  S
C606        H609   1.084       .  S
C608        C610   1.400       .  A
C608        C614   1.404       .  A
C610        C611   1.398       .  A
C610        H615   1.084       .  S
C611        C612   1.414       .  A
C611       Br619   1.922       .  S
C612        C613   1.407       .  A
C613        C614   1.399       .  A
C613        H616   1.083       .  S
C614       Br620   1.918       .  S
C621        C622   1.415       .  A
C621        C626   1.405       .  A
C622        C623   1.404   1_655  A
C622       Br638   1.920       .  S
C623        C624   1.404       .  A
C623        H627   1.083       .  S
C624        C628   1.480       .  S
C624        C625   1.408   1_455  A
C625        C626   1.393       .  A
C625       Br637   1.921       .  S
C626        H629   1.084       .  S
C628        C630   1.401       .  A
C628        C634   1.408       .  A
C630        C631   1.395       .  A
C630        H635   1.084       .  S
C631        C632   1.415       .  A
C631       Br639   1.924       .  S
C632        C633   1.406       .  A
C633        C634   1.401       .  A
C633        H636   1.083       .  S
C634       Br640   1.918   1_455  S
C641        C642   1.408       .  A
C641        C646   1.403       .  A
C642        C643   1.398       .  A
C642       Br658   1.921       .  S
C643        C644   1.403       .  A
C643        H647   1.084       .  S
C644        C648   1.476       .  S
C644        C645   1.407       .  A
C645        C646   1.400       .  A
C645       Br657   1.918   1_554  S
C646        H649   1.084       .  S
C648        C650   1.402       .  A
C648        C654   1.402       .  A
C650        C651   1.403       .  A
C650        H655   1.084       .  S
C651        C652   1.419       .  A
C651       Br659   1.921       .  S
C652        C653   1.411       .  A
C653        C654   1.394       .  A
C653        H656   1.083       .  S
C654       Br660   1.920       .  S
C661        C662   1.418       .  A
C661        C666   1.407       .  A
C662        C663   1.402       .  A
C662       Br678   1.921       .  S
C663        C664   1.400       .  A
C663        H667   1.084       .  S
C664        C668   1.474       .  S
C664        C665   1.404       .  A
C665        C666   1.395       .  A
C665       Br677   1.922   1_554  S
C666        H669   1.083   1_554  S
C668        C670   1.402       .  A
C668        C674   1.406       .  A
C670        C671   1.395       .  A
C670        H675   1.084       .  S
C671        C672   1.411       .  A
C671       Br679   1.922       .  S
C672        C673   1.406       .  A
C673        C674   1.398       .  A
C673        H676   1.084       .  S
C674       Br680   1.918       .  S
C681        C682   1.410       .  A
C681        C686   1.405       .  A
C682        C683   1.398       .  A
C682       Br698   1.920   1_556  S
C683        C684   1.400       .  A
C683        H687   1.084       .  S
C684        C688   1.476       .  S
C684        C685   1.407       .  A
C685        C686   1.403       .  A
C685       Br697   1.919       .  S
C686        H689   1.083       .  S
C688        C690   1.400       .  A
C688        C694   1.407       .  A
C690        C691   1.399       .  A
C690        H695   1.083       .  S
C691        C692   1.413       .  A
C691       Br699   1.919       .  S
C692        C693   1.407       .  A
C693        C694   1.400       .  A
C693        H696   1.084       .  S
C694       Br700   1.920       .  S
C701        C702   1.422       .  A
C701        C706   1.411       .  A
C702        C703   1.397       .  A
C702       Br718   1.925       .  S
C703        C704   1.397       .  A
C703        H707   1.084       .  S
C704        C708   1.481       .  S
C704        C705   1.407       .  A
C705        C706   1.405       .  A
C705       Br717   1.918       .  S
C706        H709   1.083       .  S
C708        C710   1.404       .  A
C708        C714   1.410       .  A
C710        C711   1.401   1_655  A
C710        H715   1.083       .  S
C711        C712   1.409       .  A
C711       Br719   1.918       .  S
C712        C713   1.401   1_455  A
C713        C714   1.401       .  A
C713        H716   1.084       .  S
C714       Br720   1.918       .  S
C721        C722   1.412       .  A
C721        C726   1.408       .  A
C722        C723   1.398       .  A
C722       Br738   1.922       .  S
C723        C724   1.403       .  A
C723        H727   1.084       .  S
C724        C728   1.480       .  S
C724        C725   1.407       .  A
C725        C726   1.401       .  A
C725       Br737   1.918       .  S
C726        H729   1.084       .  S
C728        C730   1.402       .  A
C728        C734   1.405       .  A
C730        C731   1.402       .  A
C730        H735   1.084       .  S
C731        C732   1.418       .  A
C731       Br739   1.921       .  S
C732        C733   1.407       .  A
C733        C734   1.396       .  A
C733        H736   1.083       .  S
C734       Br740   1.919       .  S
C741        C742   1.412       .  A
C741        C746   1.403       .  A
C742        C743   1.398       .  A
C742       Br758   1.921       .  S
C743        C744   1.402       .  A
C743        H747   1.084       .  S
C744        C748   1.475       .  S
C744        C745   1.407       .  A
C745        C746   1.397       .  A
C745       Br757   1.918       .  S
C746        H749   1.084       .  S
C748        C750   1.402       .  A
C748        C754   1.408       .  A
C750        C751   1.398       .  A
C750        H755   1.084       .  S
C751        C752   1.410       .  A
C751       Br759   1.921       .  S
C752        C753   1.401       .  A
C753        C754   1.397       .  A
C753        H756   1.083       .  S
C754       Br760   1.917       .  S
C761        C762   1.412       .  A
C761        C766   1.409       .  A
C762        C763   1.394       .  A
C762       Br778   1.922       .  S
C763        C764   1.399       .  A
C763        H767   1.084       .  S
C764        C768   1.473       .  S
C764        C765   1.406       .  A
C765        C766   1.403       .  A
C765       Br777   1.919       .  S
C766        H769   1.083       .  S
C768        C770   1.400       .  A
C768        C774   1.405       .  A
C770        C771   1.399       .  A
C770        H775   1.084       .  S
C771        C772   1.416       .  A
C771       Br779   1.920       .  S
C772        C773   1.406       .  A
C773        C774   1.396       .  A
C773        H776   1.083       .  S
C774       Br780   1.919       .  S
C781        C782   1.423       .  A
C781        C786   1.412       .  A
C782        C783   1.408       .  A
C782       Br798   1.923       .  S
C783        C784   1.403       .  A
C783        H787   1.083       .  S
C784        C788   1.485       .  S
C784        C785   1.402       .  A
C785        C786   1.397       .  A
C785       Br797   1.919       .  S
C786        H789   1.083       .  S
C788        C790   1.405       .  A
C788        C794   1.409       .  A
C790        C791   1.402       .  A
C790        H795   1.083       .  S
C791        C792   1.408       .  A
C791       Br799   1.920       .  S
C792        C793   1.403       .  A
C793        C794   1.403       .  A
C793        H796   1.084       .  S
C794       Br800   1.917       .  S
C801        C802   1.413       .  A
C801        C806   1.408       .  A
C802        C803   1.394       .  A
C802       Br818   1.921       .  S
C803        C804   1.399       .  A
C803        H807   1.084       .  S
C804        C808   1.480       .  S
C804        C805   1.410       .  A
C805        C806   1.405       .  A
C805       Br817   1.920       .  S
C806        H809   1.083       .  S
C808        C810   1.401       .  A
C808        C814   1.408       .  A
C810        C811   1.401       .  A
C810        H815   1.084       .  S
C811        C812   1.419       .  A
C811       Br819   1.920   1_565  S
C812        C813   1.406       .  A
C813        C814   1.394       .  A
C813        H816   1.083       .  S
C814       Br820   1.919       .  S
C821        C822   1.413   1_545  A
C821        C826   1.405       .  A
C822        C823   1.401   1_565  A
C822       Br838   1.920       .  S
C823        C824   1.401       .  A
C823        H827   1.083       .  S
C824        C828   1.474       .  S
C824        C825   1.406       .  A
C825        C826   1.397       .  A
C825       Br837   1.920       .  S
C826        H829   1.083       .  S
C828        C830   1.401       .  A
C828        C834   1.407       .  A
C830        C831   1.399       .  A
C830        H835   1.083       .  S
C831        C832   1.412       .  A
C831       Br839   1.919       .  S
C832        C833   1.405       .  A
C833        C834   1.398       .  A
C833        H836   1.084       .  S
C834       Br840   1.919       .  S
C841        C842   1.410       .  A
C841        C846   1.404       .  A
C842        C843   1.397       .  A
C842       Br858   1.919       .  S
C843        C844   1.400       .  A
C843        H847   1.084       .  S
C844        C848   1.473       .  S
C844        C845   1.407       .  A
C845        C846   1.399       .  A
C845       Br857   1.919       .  S
C846        H849   1.084       .  S
C848        C850   1.400       .  A
C848        C854   1.406       .  A
C850        C851   1.396       .  A
C850        H855   1.084   1_565  S
C851        C852   1.412       .  A
C851       Br859   1.920   1_565  S
C852        C853   1.406       .  A
C853        C854   1.401       .  A
C853        H856   1.083       .  S
C854       Br860   1.918       .  S
C861        C862   1.413       .  A
C861        C866   1.404       .  A
C862        C863   1.402       .  A
C862       Br878   1.921       .  S
C863        C864   1.402       .  A
C863        H867   1.083       .  S
C864        C868   1.475       .  S
C864        C865   1.405       .  A
C865        C866   1.396       .  A
C865       Br877   1.919       .  S
C866        H869   1.084       .  S
C868        C870   1.399       .  A
C868        C874   1.407       .  A
C870        C871   1.396       .  A
C870        H875   1.084       .  S
C871        C872   1.414       .  A
C871       Br879   1.921       .  S
C872        C873   1.406       .  A
C873        C874   1.401       .  A
C873        H876   1.083       .  S
C874       Br880   1.917       .  S
C881        C882   1.416       .  A
C881        C886   1.409   1_565  A
C882        C883   1.397       .  A
C882       Br898   1.922       .  S
C883        C884   1.401   1_565  A
C883        H887   1.084       .  S
C884        C888   1.476       .  S
C884        C885   1.405       .  A
C885        C886   1.399       .  A
C885       Br897   1.918       .  S
C886        H889   1.083   1_455  S
C888        C890   1.402       .  A
C888        C894   1.406   1_545  A
C890        C891   1.401       .  A
C890        H895   1.083       .  S
C891        C892   1.414       .  A
C891       Br899   1.920       .  S
C892        C893   1.404   1_545  A
C893        C894   1.394       .  A
C893        H896   1.084       .  S
C894       Br900   1.920       .  S
C901        C902   1.417       .  A
C901        C906   1.408       .  A
C902        C903   1.401       .  A
C902       Br918   1.921       .  S
C903        C904   1.401       .  A
C903        H907   1.084       .  S
C904        C908   1.475       .  S
C904        C905   1.404       .  A
C905        C906   1.397       .  A
C905       Br917   1.920       .  S
C906        H909   1.083       .  S
C908        C910   1.402       .  A
C908        C914   1.405       .  A
C910        C911   1.399       .  A
C910        H915   1.084       .  S
C911        C912   1.410       .  A
C911       Br919   1.922       .  S
C912        C913   1.406       .  A
C913        C914   1.400       .  A
C913        H916   1.084       .  S
C914       Br920   1.918       .  S
C921        C922   1.416       .  A
C921        C926   1.407       .  A
C922        C923   1.399       .  A
C922       Br938   1.921       .  S
C923        C924   1.400       .  A
C923        H927   1.084       .  S
C924        C928   1.469       .  S
C924        C925   1.403       .  A
C925        C926   1.393       .  A
C925       Br937   1.919       .  S
C926        H929   1.083       .  S
C928        C930   1.401       .  A
C928        C934   1.405       .  A
C930        C931   1.396       .  A
C930        H935   1.084       .  S
C931        C932   1.407       .  A
C931       Br939   1.914       .  S
C932        C933   1.403       .  A
C933        C934   1.399       .  A
C933        H936   1.084       .  S
C934       Br940   1.917       .  S
C941        C942   1.416       .  A
C941        C946   1.411       .  A
C942        C943   1.404       .  A
C942       Br958   1.920       .  S
C943        C944   1.402       .  A
C943        H947   1.084       .  S
C944        C948   1.481       .  S
C944        C945   1.405       .  A
C945        C946   1.398       .  A
C945       Br957   1.921       .  S
C946        H949   1.083       .  S
C948        C950   1.404       .  A
C948        C954   1.408   1_565  A
C950        C951   1.403   1_565  A
C950        H955   1.083       .  S
C951        C952   1.412       .  A
C951       Br959   1.922       .  S
C952        C953   1.404       .  A
C953        C954   1.398       .  A
C953        H956   1.084       .  S
C954       Br960   1.919       .  S
C961        C962   1.421       .  A
C961        C966   1.413       .  A
C962        C963   1.399       .  A
C962       Br978   1.924       .  S
C963        C964   1.401       .  A
C963        H967   1.084       .  S
C964        C968   1.481       .  S
C964        C965   1.404       .  A
C965        C966   1.400       .  A
C965       Br977   1.919       .  S
C966        H969   1.083       .  S
C968        C970   1.405       .  A
C968        C974   1.408       .  A
C970        C971   1.403       .  A
C970        H975   1.083       .  S
C971        C972   1.411       .  A
C971       Br979   1.919       .  S
C972        C973   1.403       .  A
C973        C974   1.396       .  A
C973        H976   1.084       .  S
C974       Br980   1.921       .  S
C981        C982   1.421       .  A
C981        C986   1.407       .  A
C982        C983   1.396       .  A
C982       Br998   1.925       .  S
C983        C984   1.396       .  A
C983        H987   1.084       .  S
C984        C988   1.476       .  S
C984        C985   1.406       .  A
C985        C986   1.402       .  A
C985       Br997   1.917       .  S
C986        H989   1.083       .  S
C988        C990   1.402       .  A
C988        C994   1.408       .  A
C990        C991   1.400       .  A
C990        H995   1.083       .  S
C991        C992   1.408       .  A
C991       Br999   1.919       .  S
C992        C993   1.402       .  A
C993        C994   1.400       .  A
C993        H996   1.084       .  S
C994      Br1000   1.918       .  S
C1001      C1002   1.409       .  A
C1001      C1006   1.401       .  A
C1002      C1003   1.398       .  A
C1002     Br1018   1.920       .  S
C1003      C1004   1.403       .  A
C1003      H1007   1.084       .  S
C1004      C1008   1.474       .  S
C1004      C1005   1.407       .  A
C1005      C1006   1.397       .  A
C1005     Br1017   1.918       .  S
C1006      H1009   1.082       .  S
C1008      C1010   1.398       .  A
C1008      C1014   1.407       .  A
C1010      C1011   1.394       .  A
C1010      H1015   1.084       .  S
C1011      C1012   1.415       .  A
C1011     Br1019   1.922       .  S
C1012      C1013   1.405       .  A
C1013      C1014   1.402       .  A
C1013      H1016   1.083       .  S
C1014     Br1020   1.918       .  S
C1021      C1022   1.415   1_565  A
C1021      C1026   1.404       .  A
C1022      C1023   1.399       .  A
C1022     Br1038   1.921       .  S
C1023      C1024   1.400       .  A
C1023      H1027   1.084       .  S
C1024      C1028   1.471       .  S
C1024      C1025   1.405   1_545  A
C1025      C1026   1.395       .  A
C1025     Br1037   1.919       .  S
C1026      H1029   1.084       .  S
C1028      C1030   1.398       .  A
C1028      C1034   1.405       .  A
C1030      C1031   1.394       .  A
C1030      H1035   1.084   1_545  S
C1031      C1032   1.413       .  A
C1031     Br1039   1.921       .  S
C1032      C1033   1.408       .  A
C1033      C1034   1.402       .  A
C1033      H1036   1.083       .  S
C1034     Br1040   1.918       .  S
C1041      C1042   1.421       .  A
C1041      C1046   1.409       .  A
C1042      C1043   1.402       .  A
C1042     Br1058   1.922       .  S
C1043      C1044   1.400       .  A
C1043      H1047   1.084       .  S
C1044      C1048   1.478       .  S
C1044      C1045   1.404       .  A
C1045      C1046   1.396       .  A
C1045     Br1057   1.918       .  S
C1046      H1049   1.083       .  S
C1048      C1050   1.401       .  A
C1048      C1054   1.408       .  A
C1050      C1051   1.399       .  A
C1050      H1055   1.084       .  S
C1051      C1052   1.408       .  A
C1051     Br1059   1.917       .  S
C1052      C1053   1.404       .  A
C1053      C1054   1.403       .  A
C1053      H1056   1.083       .  S
C1054     Br1060   1.919       .  S
C1061      C1062   1.411       .  A
C1061      C1066   1.404       .  A
C1062      C1063   1.400       .  A
C1062     Br1078   1.920       .  S
C1063      C1064   1.402       .  A
C1063      H1067   1.084       .  S
C1064      C1068   1.474       .  S
C1064      C1065   1.406       .  A
C1065      C1066   1.396       .  A
C1065     Br1077   1.919       .  S
C1066      H1069   1.083       .  S
C1068      C1070   1.399       .  A
C1068      C1074   1.405       .  A
C1070      C1071   1.400       .  A
C1070      H1075   1.084       .  S
C1071      C1072   1.420       .  A
C1071     Br1079   1.923       .  S
C1072      C1073   1.407       .  A
C1073      C1074   1.397       .  A
C1073      H1076   1.083       .  S
C1074     Br1080   1.920       .  S
C1081      C1082   1.418       .  A
C1081      C1086   1.407       .  A
C1082      C1083   1.399       .  A
C1082     Br1098   1.922       .  S
C1083      C1084   1.399       .  A
C1083      H1087   1.084       .  S
C1084      C1088   1.475       .  S
C1084      C1085   1.404       .  A
C1085      C1086   1.400       .  A
C1085     Br1097   1.917       .  S
C1086      H1089   1.083       .  S
C1088      C1090   1.401   1_655  A
C1088      C1094   1.406       .  A
C1090      C1091   1.400       .  A
C1090      H1095   1.083       .  S
C1091      C1092   1.413       .  A
C1091     Br1099   1.920       .  S
C1092      C1093   1.405   1_455  A
C1093      C1094   1.398       .  A
C1093      H1096   1.084       .  S
C1094     Br1100   1.919       .  S
C1101      C1102   1.416       .  A
C1101      C1106   1.409       .  A
C1102      C1103   1.400       .  A
C1102     Br1118   1.920       .  S
C1103      C1104   1.399       .  A
C1103      H1107   1.084       .  S
C1104      C1108   1.472       .  S
C1104      C1105   1.403       .  A
C1105      C1106   1.396       .  A
C1105     Br1117   1.920       .  S
C1106      H1109   1.083       .  S
C1108      C1110   1.400       .  A
C1108      C1114   1.406       .  A
C1110      C1111   1.397       .  A
C1110      H1115   1.084       .  S
C1111      C1112   1.410       .  A
C1111     Br1119   1.921       .  S
C1112      C1113   1.405       .  A
C1113      C1114   1.400       .  A
C1113      H1116   1.084       .  S
C1114     Br1120   1.919       .  S
C1121      C1122   1.410       .  A
C1121      C1126   1.403       .  A
C1122      C1123   1.397       .  A
C1122     Br1138   1.921   1_455  S
C1123      C1124   1.403       .  A
C1123      H1127   1.084       .  S
C1124      C1128   1.477       .  S
C1124      C1125   1.408       .  A
C1125      C1126   1.399       .  A
C1125     Br1137   1.917       .  S
C1126      H1129   1.084       .  S
C1128      C1130   1.400       .  A
C1128      C1134   1.406       .  A
C1130      C1131   1.397       .  A
C1130      H1135   1.084       .  S
C1131      C1132   1.419       .  A
C1131     Br1139   1.925       .  S
C1132      C1133   1.407       .  A
C1133      C1134   1.398       .  A
C1133      H1136   1.080       .  S
C1134     Br1140   1.917       .  S
C1141      C1142   1.412       .  A
C1141      C1146   1.405       .  A
C1142      C1143   1.395       .  A
C1142     Br1158   1.921       .  S
C1143      C1144   1.399   1_455  A
C1143      H1147   1.084       .  S
C1144      C1148   1.475       .  S
C1144      C1145   1.408       .  A
C1145      C1146   1.402   1_655  A
C1145     Br1157   1.918       .  S
C1146      H1149   1.084       .  S
C1148      C1150   1.400   1_655  A
C1148      C1154   1.405       .  A
C1150      C1151   1.397   1_455  A
C1150      H1155   1.084       .  S
C1151      C1152   1.415       .  A
C1151     Br1159   1.923   1_655  S
C1152      C1153   1.407       .  A
C1153      C1154   1.400       .  A
C1153      H1156   1.083       .  S
C1154     Br1160   1.919       .  S
C1161      C1162   1.417       .  A
C1161      C1166   1.407       .  A
C1162      C1163   1.396       .  A
C1162     Br1178   1.922       .  S
C1163      C1164   1.397       .  A
C1163      H1167   1.084       .  S
C1164      C1168   1.475       .  S
C1164      C1165   1.407       .  A
C1165      C1166   1.403       .  A
C1165     Br1177   1.918       .  S
C1166      H1169   1.083       .  S
C1168      C1170   1.401       .  A
C1168      C1174   1.407       .  A
C1170      C1171   1.397       .  A
C1170      H1175   1.084       .  S
C1171      C1172   1.409       .  A
C1171     Br1179   1.919       .  S
C1172      C1173   1.404       .  A
C1173      C1174   1.400       .  A
C1173      H1176   1.084       .  S
C1174     Br1180   1.917       .  S
C1181      C1182   1.417       .  A
C1181      C1186   1.409       .  A
C1182      C1183   1.405       .  A
C1182     Br1198   1.920       .  S
C1183      C1184   1.403       .  A
C1183      H1187   1.083       .  S
C1184      C1188   1.481       .  S
C1184      C1185   1.404       .  A
C1185      C1186   1.397       .  A
C1185     Br1197   1.919       .  S
C1186      H1189   1.083       .  S
C1188      C1190   1.403       .  A
C1188      C1194   1.408       .  A
C1190      C1191   1.400       .  A
C1190      H1195   1.084       .  S
C1191      C1192   1.411       .  A
C1191     Br1199   1.921       .  S
C1192      C1193   1.402       .  A
C1193      C1194   1.401       .  A
C1193      H1196   1.084       .  S
C1194     Br1200   1.916       .  S
C1201      C1202   1.410       .  A
C1201      C1206   1.407       .  A
C1202      C1203   1.400       .  A
C1202     Br1218   1.920       .  S
C1203      C1204   1.403       .  A
C1203      H1207   1.084       .  S
C1204      C1208   1.479       .  S
C1204      C1205   1.406       .  A
C1205      C1206   1.401       .  A
C1205     Br1217   1.918       .  S
C1206      H1209   1.084       .  S
C1208      C1210   1.401       .  A
C1208      C1214   1.407       .  A
C1210      C1211   1.401       .  A
C1210      H1215   1.084       .  S
C1211      C1212   1.415       .  A
C1211     Br1219   1.921       .  S
C1212      C1213   1.406       .  A
C1213      C1214   1.400       .  A
C1213      H1216   1.084       .  S
C1214     Br1220   1.919       .  S
C1221      C1222   1.417       .  A
C1221      C1226   1.410       .  A
C1222      C1223   1.402       .  A
C1222     Br1238   1.920       .  S
C1223      C1224   1.400       .  A
C1223      H1227   1.084       .  S
C1224      C1228   1.481       .  S
C1224      C1225   1.406       .  A
C1225      C1226   1.400       .  A
C1225     Br1237   1.919       .  S
C1226      H1229   1.083       .  S
C1228      C1230   1.403       .  A
C1228      C1234   1.409       .  A
C1230      C1231   1.401       .  A
C1230      H1235   1.083       .  S
C1231      C1232   1.408       .  A
C1231     Br1239   1.919   1_556  S
C1232      C1233   1.401   1_545  A
C1233      C1234   1.401   1_565  A
C1233      H1236   1.083       .  S
C1234     Br1240   1.918   1_545  S
C1241      C1242   1.421       .  A
C1241      C1246   1.407       .  A
C1242      C1243   1.399       .  A
C1242     Br1258   1.924       .  S
C1243      C1244   1.399       .  A
C1243      H1247   1.084       .  S
C1244      C1248   1.476       .  S
C1244      C1245   1.406       .  A
C1245      C1246   1.394       .  A
C1245     Br1257   1.920       .  S
C1246      H1249   1.083       .  S
C1248      C1250   1.402       .  A
C1248      C1254   1.408       .  A
C1250      C1251   1.397       .  A
C1250      H1255   1.084   1_554  S
C1251      C1252   1.410       .  A
C1251     Br1259   1.919   1_554  S
C1252      C1253   1.404       .  A
C1253      C1254   1.399       .  A
C1253      H1256   1.083       .  S
C1254     Br1260   1.919       .  S
C1261      C1262   1.423       .  A
C1261      C1266   1.411       .  A
C1262      C1263   1.400       .  A
C1262     Br1278   1.924       .  S
C1263      C1264   1.400       .  A
C1263      H1267   1.084       .  S
C1264      C1268   1.484       .  S
C1264      C1265   1.406       .  A
C1265      C1266   1.403       .  A
C1265     Br1277   1.917       .  S
C1266      H1269   1.083       .  S
C1268      C1270   1.405       .  A
C1268      C1274   1.409       .  A
C1270      C1271   1.404       .  A
C1270      H1275   1.083       .  S
C1271      C1272   1.410       .  A
C1271     Br1279   1.918       .  S
C1272      C1273   1.404       .  A
C1273      C1274   1.399       .  A
C1273      H1276   1.084       .  S
C1274     Br1280   1.919       .  S
C1281      C1282   1.417       .  A
C1281      C1286   1.408       .  A
C1282      C1283   1.399       .  A
C1282     Br1298   1.922       .  S
C1283      C1284   1.400       .  A
C1283      H1287   1.084       .  S
C1284      C1288   1.479       .  S
C1284      C1285   1.406       .  A
C1285      C1286   1.402       .  A
C1285     Br1297   1.917       .  S
C1286      H1289   1.083       .  S
C1288      C1290   1.403       .  A
C1288      C1294   1.407       .  A
C1290      C1291   1.403       .  A
C1290      H1295   1.083       .  S
C1291      C1292   1.411       .  A
C1291     Br1299   1.920       .  S
C1292      C1293   1.402       .  A
C1293      C1294   1.396       .  A
C1293      H1296   1.084       .  S
C1294     Br1300   1.918       .  S
C1301      C1302   1.415       .  A
C1301      C1306   1.409       .  A
C1302      C1303   1.400       .  A
C1302     Br1318   1.919       .  S
C1303      C1304   1.400       .  A
C1303      H1307   1.083       .  S
C1304      C1308   1.473       .  S
C1304      C1305   1.404       .  A
C1305      C1306   1.397       .  A
C1305     Br1317   1.921       .  S
C1306      H1309   1.083       .  S
C1308      C1310   1.400       .  A
C1308      C1314   1.407       .  A
C1310      C1311   1.398       .  A
C1310      H1315   1.084       .  S
C1311      C1312   1.407       .  A
C1311     Br1319   1.912       .  S
C1312      C1313   1.403       .  A
C1313      C1314   1.399       .  A
C1313      H1316   1.082       .  S
C1314     Br1320   1.919       .  S
C1321      C1322   1.412       .  A
C1321      C1326   1.404       .  A
C1322      C1323   1.397       .  A
C1322     Br1338   1.921       .  S
C1323      C1324   1.400       .  A
C1323      H1327   1.084       .  S
C1324      C1328   1.475       .  S
C1324      C1325   1.408       .  A
C1325      C1326   1.401       .  A
C1325     Br1337   1.917       .  S
C1326      H1329   1.084       .  S
C1328      C1330   1.403       .  A
C1328      C1334   1.406       .  A
C1330      C1331   1.399       .  A
C1330      H1335   1.084       .  S
C1331      C1332   1.410       .  A
C1331     Br1339   1.922       .  S
C1332      C1333   1.405       .  A
C1333      C1334   1.398       .  A
C1333      H1336   1.084       .  S
C1334     Br1340   1.917       .  S
C1341      C1342   1.413       .  A
C1341      C1346   1.404       .  A
C1342      C1343   1.400       .  A
C1342     Br1358   1.922       .  S
C1343      C1344   1.402       .  A
C1343      H1347   1.084       .  S
C1344      C1348   1.483       .  S
C1344      C1345   1.410       .  A
C1345      C1346   1.403       .  A
C1345     Br1357   1.918       .  S
C1346      H1349   1.083       .  S
C1348      C1350   1.404       .  A
C1348      C1354   1.407       .  A
C1350      C1351   1.403       .  A
C1350      H1355   1.084       .  S
C1351      C1352   1.414       .  A
C1351     Br1359   1.922       .  S
C1352      C1353   1.404       .  A
C1353      C1354   1.399       .  A
C1353      H1356   1.080       .  S
C1354     Br1360   1.918       .  S
C1361      C1362   1.414       .  A
C1361      C1366   1.407       .  A
C1362      C1363   1.398       .  A
C1362     Br1378   1.920       .  S
C1363      C1364   1.400       .  A
C1363      H1367   1.084       .  S
C1364      C1368   1.482       .  S
C1364      C1365   1.409       .  A
C1365      C1366   1.404       .  A
C1365     Br1377   1.918       .  S
C1366      H1369   1.083       .  S
C1368      C1370   1.399       .  A
C1368      C1374   1.406   1_655  A
C1370      C1371   1.397       .  A
C1370      H1375   1.084       .  S
C1371      C1372   1.414   1_655  A
C1371     Br1379   1.911       .  S
C1372      C1373   1.410       .  A
C1373      C1374   1.405       .  A
C1373      H1376   1.083       .  S
C1374     Br1380   1.916       .  S
C1381      C1382   1.413       .  A
C1381      C1386   1.403       .  A
C1382      C1383   1.400       .  A
C1382     Br1398   1.919       .  S
C1383      C1384   1.401       .  A
C1383      H1387   1.084       .  S
C1384      C1388   1.475       .  S
C1384      C1385   1.407       .  A
C1385      C1386   1.397       .  A
C1385     Br1397   1.918       .  S
C1386      H1389   1.084       .  S
C1388      C1390   1.399       .  A
C1388      C1394   1.405       .  A
C1390      C1391   1.398       .  A
C1390      H1395   1.084       .  S
C1391      C1392   1.417       .  A
C1391     Br1399   1.920       .  S
C1392      C1393   1.407       .  A
C1393      C1394   1.401       .  A
C1393      H1396   1.083       .  S
C1394     Br1400   1.917       .  S
C1401      C1402   1.416       .  A
C1401      C1406   1.406       .  A
C1402      C1403   1.401       .  A
C1402     Br1418   1.921       .  S
C1403      C1404   1.401       .  A
C1403      H1407   1.084       .  S
C1404      C1408   1.475       .  S
C1404      C1405   1.405       .  A
C1405      C1406   1.395       .  A
C1405     Br1417   1.920       .  S
C1406      H1409   1.082       .  S
C1408      C1410   1.400       .  A
C1408      C1414   1.405       .  A
C1410      C1411   1.402       .  A
C1410      H1415   1.084       .  S
C1411      C1412   1.417       .  A
C1411     Br1419   1.919       .  S
C1412      C1413   1.407       .  A
C1413      C1414   1.395       .  A
C1413      H1416   1.081       .  S
C1414     Br1420   1.921       .  S
C1421      C1422   1.419       .  A
C1421      C1426   1.406       .  A
C1422      C1423   1.403       .  A
C1422     Br1438   1.924       .  S
C1423      C1424   1.404       .  A
C1423      H1427   1.083       .  S
C1424      C1428   1.486   1_565  S
C1424      C1425   1.410       .  A
C1425      C1426   1.392       .  A
C1425     Br1437   1.922       .  S
C1426      H1429   1.083       .  S
C1428      C1430   1.403       .  A
C1428      C1434   1.413   1_545  A
C1430      C1431   1.395       .  A
C1430      H1435   1.084       .  S
C1431      C1432   1.410       .  A
C1431     Br1439   1.922       .  S
C1432      C1433   1.405       .  A
C1433      C1434   1.403   1_545  A
C1433      H1436   1.084       .  S
C1434     Br1440   1.920       .  S
C1441      C1442   1.419       .  A
C1441      C1446   1.406   1_455  A
C1442      C1443   1.401       .  A
C1442     Br1458   1.922       .  S
C1443      C1444   1.401   1_455  A
C1443      H1447   1.084       .  S
C1444      C1448   1.485       .  S
C1444      C1445   1.408       .  A
C1445      C1446   1.403       .  A
C1445     Br1457   1.916       .  S
C1446      H1449   1.083       .  S
C1448      C1450   1.402       .  A
C1448      C1454   1.409       .  A
C1450      C1451   1.403       .  A
C1450      H1455   1.083       .  S
C1451      C1452   1.415       .  A
C1451     Br1459   1.920       .  S
C1452      C1453   1.406       .  A
C1453      C1454   1.402       .  A
C1453      H1456   1.084   1_655  S
C1454     Br1460   1.920   1_655  S
C1461      C1462   1.406       .  A
C1461      C1466   1.402       .  A
C1462      C1463   1.397       .  A
C1462     Br1478   1.920       .  S
C1463      C1464   1.402       .  A
C1463      H1467   1.083       .  S
C1464      C1468   1.475       .  S
C1464      C1465   1.409       .  A
C1465      C1466   1.398       .  A
C1465     Br1477   1.917       .  S
C1466      H1469   1.084       .  S
C1468      C1470   1.399       .  A
C1468      C1474   1.407       .  A
C1470      C1471   1.397       .  A
C1470      H1475   1.084       .  S
C1471      C1472   1.413       .  A
C1471     Br1479   1.922       .  S
C1472      C1473   1.405       .  A
C1473      C1474   1.402       .  A
C1473      H1476   1.083       .  S
C1474     Br1480   1.918       .  S
C1481      C1482   1.412       .  A
C1481      C1486   1.406       .  A
C1482      C1483   1.400       .  A
C1482     Br1498   1.921       .  S
C1483      C1484   1.402       .  A
C1483      H1487   1.084       .  S
C1484      C1488   1.488       .  S
C1484      C1485   1.411       .  A
C1485      C1486   1.406       .  A
C1485     Br1497   1.918       .  S
C1486      H1489   1.083       .  S
C1488      C1490   1.401       .  A
C1488      C1494   1.407       .  A
C1490      C1491   1.403       .  A
C1490      H1495   1.084       .  S
C1491      C1492   1.422       .  A
C1491     Br1499   1.924       .  S
C1492      C1493   1.411       .  A
C1493      C1494   1.404       .  A
C1493      H1496   1.083       .  S
C1494     Br1500   1.918       .  S
C1501      C1502   1.414       .  A
C1501      C1506   1.406       .  A
C1502      C1503   1.394       .  A
C1502     Br1518   1.920       .  S
C1503      C1504   1.398       .  A
C1503      H1507   1.084       .  S
C1504      C1508   1.473       .  S
C1504      C1505   1.407       .  A
C1505      C1506   1.401       .  A
C1505     Br1517   1.917       .  S
C1506      H1509   1.083       .  S
C1508      C1510   1.402       .  A
C1508      C1514   1.404       .  A
C1510      C1511   1.399       .  A
C1510      H1515   1.084       .  S
C1511      C1512   1.415       .  A
C1511     Br1519   1.923       .  S
C1512      C1513   1.405       .  A
C1513      C1514   1.397       .  A
C1513      H1516   1.084       .  S
C1514     Br1520   1.917       .  S
C1521      C1522   1.410       .  A
C1521      C1526   1.404       .  A
C1522      C1523   1.400       .  A
C1522     Br1538   1.920   1_565  S
C1523      C1524   1.403       .  A
C1523      H1527   1.084       .  S
C1524      C1528   1.474       .  S
C1524      C1525   1.407       .  A
C1525      C1526   1.395       .  A
C1525     Br1537   1.921       .  S
C1526      H1529   1.082       .  S
C1528      C1530   1.402       .  A
C1528      C1534   1.410       .  A
C1530      C1531   1.396       .  A
C1530      H1535   1.084       .  S
C1531      C1532   1.406       .  A
C1531     Br1539   1.921       .  S
C1532      C1533   1.400       .  A
C1533      C1534   1.397       .  A
C1533      H1536   1.082       .  S
C1534     Br1540   1.918       .  S
C1541      C1542   1.414   1_565  A
C1541      C1546   1.405   1_655  A
C1542      C1543   1.401   1_655  A
C1542     Br1558   1.922       .  S
C1543      C1544   1.405       .  A
C1543      H1547   1.084       .  S
C1544      C1548   1.488       .  S
C1544      C1545   1.410   1_545  A
C1545      C1546   1.399       .  A
C1545     Br1557   1.917       .  S
C1546      H1549   1.084       .  S
C1548      C1550   1.405       .  A
C1548      C1554   1.409       .  A
C1550      C1551   1.406       .  A
C1550      H1555   1.083   1_545  S
C1551      C1552   1.416       .  A
C1551     Br1559   1.920   1_545  S
C1552      C1553   1.407       .  A
C1553      C1554   1.396       .  A
C1553      H1556   1.083       .  S
C1554     Br1560   1.921       .  S
C1561      C1562   1.411       .  A
C1561      C1566   1.406       .  A
C1562      C1563   1.396       .  A
C1562     Br1578   1.922       .  S
C1563      C1564   1.400       .  A
C1563      H1567   1.084       .  S
C1564      C1568   1.480       .  S
C1564      C1565   1.409       .  A
C1565      C1566   1.404       .  A
C1565     Br1577   1.918       .  S
C1566      H1569   1.083       .  S
C1568      C1570   1.400       .  A
C1568      C1574   1.407       .  A
C1570      C1571   1.402       .  A
C1570      H1575   1.084       .  S
C1571      C1572   1.417       .  A
C1571     Br1579   1.917       .  S
C1572      C1573   1.405       .  A
C1573      C1574   1.397       .  A
C1573      H1576   1.083       .  S
C1574     Br1580   1.918       .  S
C1581      C1582   1.414       .  A
C1581      C1586   1.406       .  A
C1582      C1583   1.397       .  A
C1582     Br1598   1.920       .  S
C1583      C1584   1.400       .  A
C1583      H1587   1.084       .  S
C1584      C1588   1.476   1_545  S
C1584      C1585   1.407       .  A
C1585      C1586   1.399       .  A
C1585     Br1597   1.917   1_545  S
C1586      H1589   1.083       .  S
C1588      C1590   1.401       .  A
C1588      C1594   1.406       .  A
C1590      C1591   1.398       .  A
C1590      H1595   1.084       .  S
C1591      C1592   1.413       .  A
C1591     Br1599   1.921       .  S
C1592      C1593   1.406       .  A
C1593      C1594   1.401       .  A
C1593      H1596   1.083       .  S
C1594     Br1600   1.918       .  S
C1601      C1602   1.413       .  A
C1601      C1606   1.407       .  A
C1602      C1603   1.396       .  A
C1602     Br1618   1.921       .  S
C1603      C1604   1.401       .  A
C1603      H1607   1.084       .  S
C1604      C1608   1.483       .  S
C1604      C1605   1.410       .  A
C1605      C1606   1.403       .  A
C1605     Br1617   1.919       .  S
C1606      H1609   1.083       .  S
C1608      C1610   1.401       .  A
C1608      C1614   1.409       .  A
C1610      C1611   1.397       .  A
C1610      H1615   1.084       .  S
C1611      C1612   1.414       .  A
C1611     Br1619   1.922       .  S
C1612      C1613   1.409       .  A
C1613      C1614   1.404       .  A
C1613      H1616   1.083       .  S
C1614     Br1620   1.919       .  S
C1621      C1622   1.416       .  A
C1621      C1626   1.405       .  A
C1622      C1623   1.404       .  A
C1622     Br1638   1.921       .  S
C1623      C1624   1.403       .  A
C1623      H1627   1.083       .  S
C1624      C1628   1.482       .  S
C1624      C1625   1.408       .  A
C1625      C1626   1.397       .  A
C1625     Br1637   1.919       .  S
C1626      H1629   1.083       .  S
C1628      C1630   1.402   1_655  A
C1628      C1634   1.406       .  A
C1630      C1631   1.404       .  A
C1630      H1635   1.084       .  S
C1631      C1632   1.418   1_455  A
C1631     Br1639   1.920       .  S
C1632      C1633   1.409       .  A
C1633      C1634   1.398       .  A
C1633      H1636   1.083       .  S
C1634     Br1640   1.921       .  S
C1641      C1642   1.416       .  A
C1641      C1646   1.406       .  A
C1642      C1643   1.401       .  A
C1642     Br1658   1.921       .  S
C1643      C1644   1.401       .  A
C1643      H1647   1.084       .  S
C1644      C1648   1.475       .  S
C1644      C1645   1.404       .  A
C1645      C1646   1.396       .  A
C1645     Br1657   1.918       .  S
C1646      H1649   1.084       .  S
C1648      C1650   1.401       .  A
C1648      C1654   1.406       .  A
C1650      C1651   1.398       .  A
C1650      H1655   1.084       .  S
C1651      C1652   1.409       .  A
C1651     Br1659   1.915       .  S
C1652      C1653   1.405       .  A
C1653      C1654   1.402       .  A
C1653      H1656   1.083       .  S
C1654     Br1660   1.917       .  S
C1661      C1662   1.411       .  A
C1661      C1666   1.403       .  A
C1662      C1663   1.401       .  A
C1662     Br1678   1.921       .  S
C1663      C1664   1.405       .  A
C1663      H1667   1.084       .  S
C1664      C1668   1.479       .  S
C1664      C1665   1.407       .  A
C1665      C1666   1.393       .  A
C1665     Br1677   1.920       .  S
C1666      H1669   1.083       .  S
C1668      C1670   1.403       .  A
C1668      C1674   1.411       .  A
C1670      C1671   1.398       .  A
C1670      H1675   1.083       .  S
C1671      C1672   1.407       .  A
C1671     Br1679   1.920       .  S
C1672      C1673   1.401       .  A
C1673      C1674   1.400       .  A
C1673      H1676   1.084       .  S
C1674     Br1680   1.920       .  S
C1681      C1682   1.409       .  A
C1681      C1686   1.404       .  A
C1682      C1683   1.401       .  A
C1682     Br1698   1.919       .  S
C1683      C1684   1.403       .  A
C1683      H1687   1.083       .  S
C1684      C1688   1.483       .  S
C1684      C1685   1.410       .  A
C1685      C1686   1.403       .  A
C1685     Br1697   1.919       .  S
C1686      H1689   1.084       .  S
C1688      C1690   1.401       .  A
C1688      C1694   1.408       .  A
C1690      C1691   1.400       .  A
C1690      H1695   1.084       .  S
C1691      C1692   1.416       .  A
C1691     Br1699   1.922       .  S
C1692      C1693   1.405       .  A
C1693      C1694   1.401       .  A
C1693      H1696   1.083       .  S
C1694     Br1700   1.916       .  S
C1701      C1702   1.414       .  A
C1701      C1706   1.405       .  A
C1702      C1703   1.397       .  A
C1702     Br1718   1.922       .  S
C1703      C1704   1.400       .  A
C1703      H1707   1.084       .  S
C1704      C1708   1.476       .  S
C1704      C1705   1.407       .  A
C1705      C1706   1.401       .  A
C1705     Br1717   1.917       .  S
C1706      H1709   1.083       .  S
C1708      C1710   1.401       .  A
C1708      C1714   1.406       .  A
C1710      C1711   1.401       .  A
C1710      H1715   1.084       .  S
C1711      C1712   1.413       .  A
C1711     Br1719   1.919       .  S
C1712      C1713   1.405       .  A
C1713      C1714   1.397       .  A
C1713      H1716   1.084       .  S
C1714     Br1720   1.919       .  S
C1721      C1722   1.415       .  A
C1721      C1726   1.406       .  A
C1722      C1723   1.394       .  A
C1722     Br1738   1.923       .  S
C1723      C1724   1.399       .  A
C1723      H1727   1.084       .  S
C1724      C1728   1.470       .  S
C1724      C1725   1.404       .  A
C1725      C1726   1.399       .  A
C1725     Br1737   1.918       .  S
C1726      H1729   1.083       .  S
C1728      C1730   1.400       .  A
C1728      C1734   1.404       .  A
C1730      C1731   1.398       .  A
C1730      H1735   1.084       .  S
C1731      C1732   1.414       .  A
C1731     Br1739   1.920       .  S
C1732      C1733   1.407       .  A
C1733      C1734   1.395       .  A
C1733      H1736   1.084   1_554  S
C1734     Br1740   1.921   1_554  S
C1741      C1742   1.415       .  A
C1741      C1746   1.406   1_655  A
C1742      C1743   1.405       .  A
C1742     Br1758   1.919       .  S
C1743      C1744   1.404   1_655  A
C1743      H1747   1.083       .  S
C1744      C1748   1.478       .  S
C1744      C1745   1.404       .  A
C1745      C1746   1.393       .  A
C1745     Br1757   1.919       .  S
C1746      H1749   1.084       .  S
C1748      C1750   1.403       .  A
C1748      C1754   1.405       .  A
C1750      C1751   1.399       .  A
C1750      H1755   1.084       .  S
C1751      C1752   1.415       .  A
C1751     Br1759   1.924       .  S
C1752      C1753   1.406       .  A
C1753      C1754   1.398       .  A
C1753      H1756   1.084       .  S
C1754     Br1760   1.917       .  S
C1761      C1762   1.418       .  A
C1761      C1766   1.406       .  A
C1762      C1763   1.398       .  A
C1762     Br1778   1.925       .  S
C1763      C1764   1.401       .  A
C1763      H1767   1.084       .  S
C1764      C1768   1.488       .  S
C1764      C1765   1.410       .  A
C1765      C1766   1.403       .  A
C1765     Br1777   1.918       .  S
C1766      H1769   1.083       .  S
C1768      C1770   1.405       .  A
C1768      C1774   1.410       .  A
C1770      C1771   1.404       .  A
C1770      H1775   1.083       .  S
C1771      C1772   1.415       .  A
C1771     Br1779   1.921       .  S
C1772      C1773   1.404       .  A
C1773      C1774   1.397       .  A
C1773      H1776   1.081       .  S
C1774     Br1780   1.922       .  S
C1781      C1782   1.417       .  A
C1781      C1786   1.410       .  A
C1782      C1783   1.401       .  A
C1782     Br1798   1.920       .  S
C1783      C1784   1.401       .  A
C1783      H1787   1.084       .  S
C1784      C1788   1.473       .  S
C1784      C1785   1.403       .  A
C1785      C1786   1.392       .  A
C1785     Br1797   1.922       .  S
C1786      H1789   1.083       .  S
C1788      C1790   1.402       .  A
C1788      C1794   1.408       .  A
C1790      C1791   1.398       .  A
C1790      H1795   1.084       .  S
C1791      C1792   1.407       .  A
C1791     Br1799   1.918       .  S
C1792      C1793   1.401       .  A
C1793      C1794   1.397       .  A
C1793      H1796   1.083       .  S
C1794     Br1800   1.921       .  S
C1801      C1802   1.412       .  A
C1801      C1806   1.407       .  A
C1802      C1803   1.404       .  A
C1802     Br1818   1.918       .  S
C1803      C1804   1.404       .  A
C1803      H1807   1.083       .  S
C1804      C1808   1.479       .  S
C1804      C1805   1.405       .  A
C1805      C1806   1.395       .  A
C1805     Br1817   1.919       .  S
C1806      H1809   1.084       .  S
C1808      C1810   1.401       .  A
C1808      C1814   1.407       .  A
C1810      C1811   1.403       .  A
C1810      H1815   1.083       .  S
C1811      C1812   1.416       .  A
C1811     Br1819   1.920       .  S
C1812      C1813   1.403       .  A
C1813      C1814   1.397       .  A
C1813      H1816   1.080       .  S
C1814     Br1820   1.919       .  S
C1821      C1822   1.413       .  A
C1821      C1826   1.404       .  A
C1822      C1823   1.398       .  A
C1822     Br1838   1.922       .  S
C1823      C1824   1.400       .  A
C1823      H1827   1.084       .  S
C1824      C1828   1.476       .  S
C1824      C1825   1.407       .  A
C1825      C1826   1.401       .  A
C1825     Br1837   1.918       .  S
C1826      H1829   1.083       .  S
C1828      C1830   1.401       .  A
C1828      C1834   1.407       .  A
C1830      C1831   1.400       .  A
C1830      H1835   1.084       .  S
C1831      C1832   1.412       .  A
C1831     Br1839   1.918       .  S
C1832      C1833   1.405       .  A
C1833      C1834   1.400       .  A
C1833      H1836   1.084       .  S
C1834     Br1840   1.920       .  S
C1841      C1842   1.410       .  A
C1841      C1846   1.404       .  A
C1842      C1843   1.397       .  A
C1842     Br1858   1.920       .  S
C1843      C1844   1.402       .  A
C1843      H1847   1.084       .  S
C1844      C1848   1.472       .  S
C1844      C1845   1.405       .  A
C1845      C1846   1.398       .  A
C1845     Br1857   1.918       .  S
C1846      H1849   1.084       .  S
C1848      C1850   1.402       .  A
C1848      C1854   1.402       .  A
C1850      C1851   1.403       .  A
C1850      H1855   1.084       .  S
C1851      C1852   1.416       .  A
C1851     Br1859   1.920       .  S
C1852      C1853   1.407       .  A
C1853      C1854   1.393       .  A
C1853      H1856   1.083       .  S
C1854     Br1860   1.919       .  S
C1861      C1862   1.420       .  A
C1861      C1866   1.411       .  A
C1862      C1863   1.403       .  A
C1862     Br1878   1.921       .  S
C1863      C1864   1.400       .  A
C1863      H1867   1.084       .  S
C1864      C1868   1.476       .  S
C1864      C1865   1.403       .  A
C1865      C1866   1.397       .  A
C1865     Br1877   1.920       .  S
C1866      H1869   1.083       .  S
C1868      C1870   1.402       .  A
C1868      C1874   1.408       .  A
C1870      C1871   1.397       .  A
C1870      H1875   1.084       .  S
C1871      C1872   1.406       .  A
C1871     Br1879   1.919       .  S
C1872      C1873   1.403       .  A
C1873      C1874   1.400       .  A
C1873      H1876   1.084       .  S
C1874     Br1880   1.917       .  S
C1881      C1882   1.412       .  A
C1881      C1886   1.406       .  A
C1882      C1883   1.398       .  A
C1882     Br1898   1.921       .  S
C1883      C1884   1.401       .  A
C1883      H1887   1.084       .  S
C1884      C1888   1.480       .  S
C1884      C1885   1.408       .  A
C1885      C1886   1.402       .  A
C1885     Br1897   1.918       .  S
C1886      H1889   1.083       .  S
C1888      C1890   1.402   1_565  A
C1888      C1894   1.410   1_565  A
C1890      C1891   1.401       .  A
C1890      H1895   1.083   1_545  S
C1891      C1892   1.411       .  A
C1891     Br1899   1.919       .  S
C1892      C1893   1.401       .  A
C1893      C1894   1.400       .  A
C1893      H1896   1.081       .  S
C1894     Br1900   1.919       .  S
C1901      C1902   1.413       .  A
C1901      C1906   1.406       .  A
C1902      C1903   1.401       .  A
C1902     Br1918   1.918       .  S
C1903      C1904   1.402       .  A
C1903      H1907   1.084       .  S
C1904      C1908   1.475       .  S
C1904      C1905   1.406       .  A
C1905      C1906   1.396       .  A
C1905     Br1917   1.921       .  S
C1906      H1909   1.084       .  S
C1908      C1910   1.402       .  A
C1908      C1914   1.404       .  A
C1910      C1911   1.399   1_655  A
C1910      H1915   1.084       .  S
C1911      C1912   1.414       .  A
C1911     Br1919   1.921       .  S
C1912      C1913   1.405       .  A
C1913      C1914   1.397   1_455  A
C1913      H1916   1.076       .  S
C1914     Br1920   1.920       .  S
C1921      C1922   1.416       .  A
C1921      C1926   1.407       .  A
C1922      C1923   1.398       .  A
C1922     Br1938   1.923       .  S
C1923      C1924   1.400       .  A
C1923      H1927   1.084       .  S
C1924      C1928   1.486       .  S
C1924      C1925   1.410       .  A
C1925      C1926   1.407       .  A
C1925     Br1937   1.917       .  S
C1926      H1929   1.083       .  S
C1928      C1930   1.402   1_545  A
C1928      C1934   1.407       .  A
C1930      C1931   1.405       .  A
C1930      H1935   1.084       .  S
C1931      C1932   1.418       .  A
C1931     Br1939   1.917       .  S
C1932      C1933   1.409   1_565  A
C1933      C1934   1.400       .  A
C1933      H1936   1.083       .  S
C1934     Br1940   1.919       .  S
C1941      C1942   1.415       .  A
C1941      C1946   1.406       .  A
C1942      C1943   1.402       .  A
C1942     Br1958   1.923       .  S
C1943      C1944   1.402       .  A
C1943      H1947   1.083       .  S
C1944      C1948   1.478       .  S
C1944      C1945   1.405       .  A
C1945      C1946   1.398       .  A
C1945     Br1957   1.917       .  S
C1946      H1949   1.083       .  S
C1948      C1950   1.402       .  A
C1948      C1954   1.406       .  A
C1950      C1951   1.402       .  A
C1950      H1955   1.083       .  S
C1951      C1952   1.414       .  A
C1951     Br1959   1.920       .  S
C1952      C1953   1.406       .  A
C1953      C1954   1.399       .  A
C1953      H1956   1.083   1_565  S
C1954     Br1960   1.920       .  S
C1961      C1962   1.415       .  A
C1961      C1966   1.406       .  A
C1962      C1963   1.401       .  A
C1962     Br1978   1.921       .  S
C1963      C1964   1.401       .  A
C1963      H1967   1.084       .  S
C1964      C1968   1.482       .  S
C1964      C1965   1.407       .  A
C1965      C1966   1.402       .  A
C1965     Br1977   1.916       .  S
C1966      H1969   1.083       .  S
C1968      C1970   1.399       .  A
C1968      C1974   1.408       .  A
C1970      C1971   1.399       .  A
C1970      H1975   1.084       .  S
C1971      C1972   1.413       .  A
C1971     Br1979   1.915       .  S
C1972      C1973   1.410       .  A
C1973      C1974   1.406       .  A
C1973      H1976   1.083       .  S
C1974     Br1980   1.919       .  S
