geometry optimzed in LAMMPS
_audit_creation_date              2020-11-30 
_audit_creation_method            'lammps2cif' 
_symmetry_space_group_name_H-M    'P1' 
_symmetry_Int_Tables_number       1 
_symmetry_cell_setting            triclinic 
loop_ 
_symmetry_equiv_pos_as_xyz 
  x,y,z 
_cell_length_a                    34.83228126 
_cell_length_b                    34.92730381703448 
_cell_length_c                    59.64760386822112 
_cell_angle_alpha                 89.75979970443059 
_cell_angle_beta                  90.12874513128794 
_cell_angle_gamma                 90.31590217680514 
loop_ 
_atom_site_label 
_atom_site_type_symbol 
_atom_site_fract_x 
_atom_site_fract_y 
_atom_site_fract_z 
_atom_site_charge 
N1          N  0.39928803  0.24939013  0.34111084    -0.35400
N2          N  0.38147856  0.30947015  0.37289547    -0.56000
N3          N  0.36764347  0.25090196  0.40733320    -0.35400
N4          N  0.38813924  0.19134436  0.37578001    -0.56000
C5          C  0.41089039  0.28141573  0.32993246     0.28200
C6          C  0.41756850  0.21902329  0.33189618     0.28200
C7          C  0.36758871  0.28298463  0.41995673     0.28200
C8          C  0.36972434  0.22064956  0.42148726     0.28200
C9          C  0.37777469  0.32912922  0.35343727     0.36800
C10         C  0.36281005  0.32979279  0.38865583     0.36800
C11         C  0.39615442  0.16770802  0.35850815     0.36800
C12         C  0.37703373  0.16885275  0.39314695     0.36800
C13         C  0.43681213  0.27117282  0.31341582    -0.20700
C14         C  0.44078119  0.23206657  0.31452720    -0.20700
C15         C  0.36942780  0.27301543  0.44246929    -0.20700
C16         C  0.37053254  0.23361242  0.44343821    -0.20700
C17         C  0.35568008  0.36150189  0.35677561    -0.21800
C18         C  0.34693207  0.36237097  0.37920715    -0.21800
C19         C  0.39084800  0.12992487  0.36521512    -0.21800
C20         C  0.37822656  0.13071237  0.38693734    -0.21800
C21         C  0.39694535  0.31923176  0.33341301    -0.17100
C22         C  0.41225433  0.17971551  0.33779369    -0.17100
C23         C  0.36922414  0.18173742  0.41511714    -0.17100
C24         C  0.36211781  0.32049370  0.41166652    -0.17100
H25         H  0.45155673  0.28976816  0.30167394     0.15800
H26         H  0.45877583  0.21538555  0.30356276     0.15800
H27         H  0.36901427  0.29207745  0.45672685     0.15800
H28         H  0.37164375  0.21645901  0.45857958     0.15800
H29         H  0.34658237  0.38234194  0.34443097     0.14100
H30         H  0.33033860  0.38417734  0.38756025     0.14100
H31         H  0.39671489  0.10407103  0.35601092     0.14100
H32         H  0.37227388  0.10583849  0.39726552     0.14100
H33         H  0.37699868  0.24795292  0.35265623     0.27300
H34         H  0.36209949  0.24960143  0.39024877     0.27300
N35         N  0.11953468  0.19285225  0.37769362    -0.35400
N36         N  0.13383716  0.25145315  0.41164598    -0.56000
N37         N  0.12405508  0.31110826  0.37780584    -0.35400
N38         N  0.10576105  0.25243901  0.34489957    -0.56000
C39         C  0.11761174  0.17194814  0.39680713     0.28200
C40         C  0.10242039  0.17209497  0.36128898     0.28200
C41         C  0.12297293  0.33164103  0.39697528     0.28200
C42         C  0.10738424  0.33262531  0.36158556     0.28200
C43         C  0.14443576  0.22000022  0.42335175     0.36800
C44         C  0.14658052  0.28201232  0.42342922     0.36800
C45         C  0.10499688  0.22153167  0.33124496     0.36800
C46         C  0.10698712  0.28371920  0.33142354     0.36800
C47         C  0.09922718  0.13742821  0.39253002    -0.20700
C48         C  0.08927014  0.13767944  0.37017686    -0.20700
C49         C  0.10583055  0.36670429  0.39288339    -0.20700
C50         C  0.09557213  0.36715693  0.37062091    -0.20700
C51         C  0.16359430  0.23064661  0.44278402    -0.21800
C52         C  0.16493264  0.26998888  0.44283229    -0.21800
C53         C  0.10613280  0.23329276  0.30902518    -0.21800
C54         C  0.10737550  0.27258252  0.30913856    -0.21800
C55         C  0.13462438  0.18204188  0.41750164    -0.17100
C56         C  0.09956904  0.18312922  0.33844715    -0.17100
C57         C  0.10342773  0.32205956  0.33880316    -0.17100
C58         C  0.13909784  0.32047716  0.41769175    -0.17100
H59         H  0.09359519  0.11443058  0.40431076     0.15800
H60         H  0.07414738  0.11495969  0.36154379     0.15800
H61         H  0.10090216  0.38948030  0.40476908     0.15800
H62         H  0.08089544  0.39033926  0.36219902     0.15800
H63         H  0.17486667  0.21204617  0.45574977     0.14100
H64         H  0.17738689  0.28770892  0.45582740     0.14100
H65         H  0.10537565  0.21545874  0.29423397     0.14100
H66         H  0.10769136  0.29089239  0.29445311     0.14100
H67         H  0.13547510  0.21784905  0.37550011     0.27300
H68         H  0.13875939  0.28558624  0.37547380     0.27300
N69         N  0.32706203  0.45772251  0.47239353    -0.04900
N70         N  0.34929523  0.42795342  0.46829926    -0.57100
N71         N  0.29875482  0.04652718  0.46149504    -0.04600
N72         N  0.30226806  0.07607491  0.44782190    -0.59200
N73         N  0.32689350  0.04610447  0.47626148    -0.04200
N74         N  0.35027205  0.07557352  0.47287915    -0.57000
N75         N  0.29916809  0.45955916  0.45751370    -0.03900
N76         N  0.30169991  0.43128640  0.44304120    -0.59500
C77         C  0.33291894  0.41191453  0.44996635     0.97200
C78         C  0.33427717  0.09394060  0.45516215     0.97000
N79         N  0.18279482  0.04802248  0.47846558    -0.05100
N80         N  0.15888336  0.07681832  0.47508371    -0.57600
N81         N  0.20962902  0.46009547  0.45955063    -0.03200
N82         N  0.20482574  0.43106282  0.44574188    -0.58900
N83         N  0.18358264  0.45916435  0.47550998    -0.05100
N84         N  0.16045188  0.42932120  0.47286370    -0.57900
N85         N  0.20912642  0.04748999  0.46270053    -0.02900
N86         N  0.20382034  0.07571481  0.44829576    -0.59000
Mn87       Mn  0.25319158  0.00301127  0.46135487     1.18400
C88         C  0.17263787  0.09379574  0.45627480     0.99300
C89         C  0.17419957  0.41223338  0.45423199     1.00000
N90         N  0.33001322  0.04470269  0.52919698    -0.05200
N91         N  0.35332950  0.07441451  0.53189829    -0.61500
N92         N  0.30412670  0.45588949  0.54145718    -0.04000
N93         N  0.30956666  0.42763412  0.55579338    -0.62100
N94         N  0.33043868  0.45558091  0.52564684    -0.04700
N95         N  0.35453718  0.42692096  0.52900384    -0.61700
N96         N  0.30388646  0.04408683  0.54509813    -0.03600
N97         N  0.30881284  0.07297976  0.55894266    -0.62400
Mn98       Mn  0.32916815  0.00085620  0.50239620     1.10700
C99         C  0.33961565  0.09151373  0.55055873     1.00500
C100        C  0.34080545  0.40977332  0.54777674     1.00600
N101        N  0.18635744  0.45732678  0.52827843    -0.04700
N102        N  0.16246925  0.42832710  0.53169625    -0.60100
N103        N  0.21459378  0.04655345  0.54632214    -0.04000
N104        N  0.21274440  0.07613238  0.55993949    -0.56800
N105        N  0.18678546  0.04783679  0.53135274    -0.05300
N106        N  0.16535753  0.07850132  0.53452200    -0.59600
N107        N  0.21436199  0.45669551  0.54311184    -0.04300
N108        N  0.21023566  0.42737769  0.55690933    -0.56800
Mn109      Mn  0.18213282  0.00351701  0.50497818     1.20200
Mn110      Mn  0.25799850  0.00125362  0.54624297     1.10100
Cl111      Cl  0.25564412  0.00214380  0.50375169    -0.84800
C112        C  0.17801395  0.40992613  0.54949864     0.97600
C113        C  0.18209781  0.09575227  0.55234217     0.97400
N114        N  0.38909548  0.30999702  0.62781938    -0.35400
N115        N  0.38946889  0.25155875  0.66299842    -0.56000
N116        N  0.37769628  0.19473689  0.62786099    -0.35400
N117        N  0.37347152  0.25319096  0.59361631    -0.56000
C118        C  0.39017790  0.33170373  0.64653871     0.28200
C119        C  0.37788880  0.33294151  0.61066464     0.28200
C120        C  0.37204226  0.17355871  0.64660381     0.28200
C121        C  0.36380777  0.17422705  0.61039670     0.28200
C122        C  0.40509376  0.28101138  0.67456916     0.36800
C123        C  0.39733588  0.21942487  0.67482735     0.36800
C124        C  0.37700299  0.28421515  0.58022197     0.36800
C125        C  0.37332385  0.22231375  0.58008474     0.36800
C126        C  0.37987948  0.36894037  0.64126013    -0.20700
C127        C  0.37178803  0.36967340  0.61868342    -0.20700
C128        C  0.35392395  0.13942427  0.64103666    -0.20700
C129        C  0.34884821  0.13976528  0.61819408    -0.20700
C130        C  0.42191521  0.26771865  0.69416054    -0.21800
C131        C  0.41695403  0.22861888  0.69434232    -0.21800
C132        C  0.37869019  0.27305565  0.55795732    -0.21800
C133        C  0.37651850  0.23371692  0.55787897    -0.21800
C134        C  0.40384796  0.31973724  0.66773537    -0.17100
C135        C  0.37553504  0.32237360  0.58778066    -0.17100
C136        C  0.36691930  0.18447410  0.58751353    -0.17100
C137        C  0.38729437  0.18196791  0.66805710    -0.17100
H138        H  0.37875851  0.39318094  0.65248355     0.15800
H139        H  0.36330387  0.39470468  0.60917420     0.15800
H140        H  0.34621192  0.11615951  0.65222615     0.15800
H141        H  0.33619864  0.11689063  0.60841657     0.15800
H142        H  0.43653224  0.28438782  0.70686839     0.14100
H143        H  0.42722102  0.20918222  0.70716929     0.14100
H144        H  0.38070543  0.29135854  0.54331375     0.14100
H145        H  0.37632520  0.21567522  0.54316922     0.14100
H146        H  0.40016107  0.28259573  0.62645095     0.27300
H147        H  0.39513415  0.21886902  0.62670642     0.27300
N148        N  0.13643267  0.19728852  0.63052432    -0.35400
N149        N  0.14120559  0.25431842  0.59584915    -0.56000
N150        N  0.12394107  0.31198590  0.62895573    -0.35400
N151        N  0.12165133  0.25493218  0.66461001    -0.56000
C152        C  0.15267977  0.17714166  0.61373279     0.28200
C153        C  0.14313660  0.17788102  0.64977080     0.28200
C154        C  0.13663557  0.33440236  0.61191773     0.28200
C155        C  0.12146707  0.33427055  0.64736231     0.28200
C156        C  0.14135302  0.22297090  0.58272920     0.36800
C157        C  0.13772482  0.28479592  0.58208680     0.36800
C158        C  0.11322556  0.22286936  0.67641070     0.36800
C159        C  0.10376160  0.28406672  0.67505867     0.36800
C160        C  0.17021554  0.14475651  0.62244897    -0.20700
C161        C  0.16429357  0.14530991  0.64522662    -0.20700
C162        C  0.14237704  0.37142405  0.61969801    -0.20700
C163        C  0.13238573  0.37140497  0.64200287    -0.20700
C164        C  0.13769909  0.23347275  0.56039390    -0.21800
C165        C  0.13564013  0.27282585  0.55997576    -0.21800
C166        C  0.09072606  0.23176118  0.69478458    -0.21800
C167        C  0.08469185  0.27066230  0.69391463    -0.21800
C168        C  0.14960922  0.18591862  0.59067156    -0.17100
C169        C  0.12574787  0.18585898  0.67061588    -0.17100
C170        C  0.10572814  0.32269456  0.66810912    -0.17100
C171        C  0.14017934  0.32311038  0.58924367    -0.17100
H172        H  0.18507652  0.12263199  0.61331036     0.15800
H173        H  0.17330563  0.12350518  0.65703419     0.15800
H174        H  0.15163129  0.39621598  0.61015395     0.15800
H175        H  0.13260549  0.39605594  0.65293492     0.15800
H176        H  0.13804347  0.21489218  0.54591989     0.14100
H177        H  0.13370545  0.29061992  0.54512062     0.14100
H178        H  0.07945823  0.21226336  0.70732196     0.14100
H179        H  0.06811342  0.28714962  0.70574055     0.14100
H180        H  0.11707584  0.21963897  0.62860081     0.27300
H181        H  0.11272827  0.28449627  0.62756889     0.27300
N182        N  0.46210733  0.42718353  0.27345209    -0.04900
N183        N  0.45660762  0.39879998  0.28770296    -0.57100
N184        N  0.43290627  0.45763795  0.22506941    -0.04600
N185        N  0.40538384  0.45257262  0.21018795    -0.59200
N186        N  0.46064364  0.43264941  0.22215822    -0.04200
N187        N  0.45212003  0.40977183  0.20512520    -0.57000
N188        N  0.43670349  0.45448116  0.27650741    -0.03900
N189        N  0.41317382  0.44481765  0.29310120    -0.59500
C190        C  0.42615349  0.40994678  0.29983649     0.97200
C191        C  0.41756386  0.42283633  0.19783738     0.97000
N192        N  0.46083101  0.07018100  0.21958148    -0.05100
N193        N  0.45265707  0.09166002  0.20179251    -0.57600
N194        N  0.43670870  0.05015496  0.27410924    -0.03200
N195        N  0.41284127  0.06047625  0.29029021    -0.58900
N196        N  0.46297686  0.07692128  0.27115092    -0.05100
N197        N  0.45851059  0.10498340  0.28553847    -0.57900
N198        N  0.43316215  0.04495582  0.22293683    -0.02900
N199        N  0.40600424  0.04847583  0.20771603    -0.59000
Mn200      Mn  0.43360403  0.50175222  0.25123927     1.18400
C201        C  0.41827431  0.07755500  0.19465759     0.99300
C202        C  0.42734995  0.09456186  0.29745101     1.00000
N203        N  0.05591679  0.43267324  0.22384260    -0.05200
N204        N  0.06659445  0.40818458  0.20814855    -0.61500
N205        N  0.07681198  0.45557758  0.27786986    -0.04000
N206        N  0.10011986  0.44569608  0.29454980    -0.62100
N207        N  0.05071324  0.42864447  0.27483801    -0.04700
N208        N  0.05509313  0.40070545  0.28942696    -0.61700
N209        N  0.08270035  0.45902295  0.22657432    -0.03600
N210        N  0.11118511  0.45387202  0.21244631    -0.62400
Mn211      Mn  0.00758648  0.42942077  0.24811512     1.10700
C212        C  0.10087857  0.42227391  0.20097022     1.00500
C213        C  0.08581091  0.41142670  0.30167473     1.00600
N214        N  0.05005917  0.07705622  0.27269890    -0.04700
N215        N  0.05344112  0.10505333  0.28729343    -0.60100
N216        N  0.08325760  0.04615295  0.22539251    -0.04000
N217        N  0.11138149  0.05034265  0.21088513    -0.56800
N218        N  0.05541153  0.07050585  0.22121353    -0.05300
N219        N  0.06430399  0.09198575  0.20355795    -0.59600
N220        N  0.07589332  0.05041103  0.27649761    -0.04300
N221        N  0.09809428  0.06054336  0.29363326    -0.56800
Mn222      Mn  0.00733935  0.07427978  0.24556372     1.20200
Mn223      Mn  0.08072687  0.50292830  0.25271691     1.10100
Cl224      Cl  0.00734296  0.50211762  0.24992352    -0.84800
C225        C  0.08337328  0.09466807  0.30028678     0.97600
C226        C  0.09945144  0.07897592  0.19745148     0.97400
N227        N  0.46093164  0.16987332  0.96775607    -0.04900
N228        N  0.43173476  0.14663014  0.96334350    -0.57100
N229        N  0.04871966  0.19992658  0.95302790    -0.04600
N230        N  0.07719298  0.19813483  0.93852529    -0.59200
N231        N  0.04981333  0.17064425  0.96698460    -0.04200
N232        N  0.07919944  0.14825668  0.96223287    -0.57000
N233        N  0.46080574  0.19915231  0.95380493    -0.03900
N234        N  0.43173707  0.19661125  0.93969464    -0.59500
C235        C  0.41383550  0.16395493  0.94588109     0.97200
C236        C  0.09592423  0.16594788  0.94450989     0.97000
N237        N  0.04841464  0.31399194  0.97388372    -0.05100
N238        N  0.07780066  0.33783444  0.97140802    -0.57600
N239        N  0.45980389  0.28789220  0.95832569    -0.03200
N240        N  0.43038873  0.29335068  0.94477629    -0.58900
N241        N  0.45932550  0.31257224  0.97494361    -0.05100
N242        N  0.42936125  0.33553392  0.97295081    -0.57900
N243        N  0.04753741  0.28919259  0.95734219    -0.02900
N244        N  0.07599542  0.29556191  0.94327292    -0.59000
Mn245      Mn  0.00396823  0.24396648  0.95517976     1.18400
C246        C  0.09454926  0.32579390  0.95224217     0.99300
C247        C  0.41164009  0.32288111  0.95411742     1.00000
N248        N  0.05199296  0.16273043  0.01977762    -0.05200
N249        N  0.08138121  0.13907568  0.02189113    -0.61500
N250        N  0.46370861  0.18727081  0.03720320    -0.04000
N251        N  0.43417519  0.18215998  0.05068456    -0.62100
N252        N  0.46250832  0.16267023  0.02055032    -0.04700
N253        N  0.43192331  0.14019984  0.02240249    -0.61700
N254        N  0.05220411  0.18772500  0.03621796    -0.03600
N255        N  0.08145677  0.18182376  0.04978437    -0.62400
Mn256      Mn  0.00635597  0.16455935  0.99381571     1.10700
C257        C  0.09942624  0.15169813  0.04062194     1.00500
C258        C  0.41471395  0.15286963  0.04127883     1.00600
N259        N  0.46186710  0.30487011  0.02795280    -0.04700
N260        N  0.43215681  0.32670946  0.03291808    -0.60100
N261        N  0.05234734  0.27674766  0.04038807    -0.04000
N262        N  0.08255013  0.27913488  0.05370463    -0.56800
N263        N  0.05145064  0.30599549  0.02641251    -0.05300
N264        N  0.08117803  0.32894869  0.02994895    -0.59600
N265        N  0.46373926  0.27571755  0.04193982    -0.04300
N266        N  0.43559680  0.27691843  0.05663177    -0.56800
Mn267      Mn  0.00524496  0.31086104  0.00105137     1.20200
Mn268      Mn  0.00822662  0.23151434  0.03969042     1.10100
Cl269      Cl  0.00597280  0.23772708  0.99743283    -0.84800
C270        C  0.41617982  0.30864787  0.05077661     0.97600
C271        C  0.10030330  0.31158256  0.04690653     0.97400
N272        N  0.19605510  0.38285096  0.87599428    -0.35400
N273        N  0.25411902  0.36783126  0.90984383    -0.56000
N274        N  0.31348368  0.38174864  0.87697745    -0.35400
N275        N  0.25538957  0.39437429  0.84273489    -0.56000
C276        C  0.17523159  0.36499876  0.89209706     0.28200
C277        C  0.17577907  0.38046829  0.85664186     0.28200
C278        C  0.33332688  0.36348928  0.89332125     0.28200
C279        C  0.33417659  0.37885289  0.85788816     0.28200
C280        C  0.22277390  0.36775434  0.92310685     0.36800
C281        C  0.28494450  0.36710517  0.92360498     0.36800
C282        C  0.22475265  0.40812250  0.83137555     0.36800
C283        C  0.28690411  0.40756057  0.83193984     0.36800
C284        C  0.14146321  0.35085106  0.88284015    -0.20700
C285        C  0.14198788  0.36030949  0.86041922    -0.20700
C286        C  0.36686253  0.34861427  0.88448049    -0.20700
C287        C  0.36720721  0.35800016  0.86206260    -0.20700
C288        C  0.23368719  0.36719288  0.94547994    -0.21800
C289        C  0.27319501  0.36677613  0.94579399    -0.21800
C290        C  0.23685233  0.43037279  0.81339957    -0.21800
C291        C  0.27624098  0.43002337  0.81375909    -0.21800
C292        C  0.18491656  0.36325276  0.91511052    -0.17100
C293        C  0.18623197  0.39837601  0.83617007    -0.17100
C294        C  0.32489839  0.39690395  0.83731333    -0.17100
C295        C  0.32292583  0.36186691  0.91618999    -0.17100
H296        H  0.11873158  0.33538903  0.89135880     0.15800
H297        H  0.11982868  0.35333676  0.84834329     0.15800
H298        H  0.38884429  0.33267021  0.89326505     0.15800
H299        H  0.38942962  0.35048451  0.85025066     0.15800
H300        H  0.21514377  0.36573849  0.95999907     0.14100
H301        H  0.29113948  0.36494334  0.96059451     0.14100
H302        H  0.21926713  0.44520518  0.80120591     0.14100
H303        H  0.29479499  0.44450211  0.80187989     0.14100
H304        H  0.22046970  0.39960950  0.87860871     0.27300
H305        H  0.28953920  0.39902322  0.87925003     0.27300
N306        N  0.25547709  0.13087623  0.89913465    -0.35400
N307        N  0.31498492  0.12554178  0.86460564    -0.56000
N308        N  0.25531220  0.11734062  0.83118949    -0.35400
N309        N  0.19590027  0.12739138  0.86459851    -0.56000
C310        C  0.28703724  0.14114151  0.91097634     0.28200
C311        C  0.22438917  0.14226037  0.91089552     0.28200
C312        C  0.28656187  0.12203856  0.81801519     0.28200
C313        C  0.22407321  0.12280695  0.81808442     0.28200
C314        C  0.33640823  0.12100724  0.88335255     0.36800
C315        C  0.33653001  0.11309677  0.84725658     0.36800
C316        C  0.17453913  0.12289092  0.88331492     0.36800
C317        C  0.17422900  0.11447353  0.84734970     0.36800
C318        C  0.27586058  0.15868881  0.93073332    -0.20700
C319        C  0.23630156  0.15941494  0.93067093    -0.20700
C320        C  0.27504218  0.13106128  0.79636126    -0.20700
C321        C  0.23560317  0.13155432  0.79640454    -0.20700
C322        C  0.37190703  0.10601558  0.87792052    -0.21800
C323        C  0.37176920  0.10038148  0.85513095    -0.21800
C324        C  0.13901671  0.10740445  0.87798646    -0.21800
C325        C  0.13905530  0.10138433  0.85525642    -0.21800
C326        C  0.32538645  0.13290371  0.90500042    -0.17100
C327        C  0.18573967  0.13517904  0.90483995    -0.17100
C328        C  0.18568430  0.11588354  0.82458472    -0.17100
C329        C  0.32483447  0.11440864  0.82444892    -0.17100
H330        H  0.29426144  0.16951457  0.94393617     0.15800
H331        H  0.21837492  0.17084667  0.94381496     0.15800
H332        H  0.29317069  0.13585554  0.78189211     0.15800
H333        H  0.21745327  0.13678128  0.78196977     0.15800
H334        H  0.39531057  0.09945410  0.88924568     0.14100
H335        H  0.39502197  0.08806322  0.84565670     0.14100
H336        H  0.11572006  0.10070228  0.88934962     0.14100
H337        H  0.11578391  0.08858699  0.84583708     0.14100
H338        H  0.25512439  0.11361017  0.88499584     0.27300
H339        H  0.25516185  0.10540342  0.84717517     0.27300
N340        N  0.07590424  0.45719673  0.72556258    -0.04900
N341        N  0.10057111  0.42869609  0.72366618    -0.57100
N342        N  0.05199686  0.04105702  0.69909990    -0.04600
N343        N  0.05440416  0.06774546  0.68353666    -0.59200
N344        N  0.07834789  0.04628008  0.71460625    -0.04200
N345        N  0.09913638  0.07719491  0.70999587    -0.57000
N346        N  0.04791377  0.45325320  0.71090811    -0.03900
N347        N  0.05267958  0.42210328  0.69888617    -0.59500
C348        C  0.08546646  0.40691399  0.70705585     0.97200
C349        C  0.08366655  0.09007881  0.69051087     0.97000
N350        N  0.43585919  0.04445576  0.71334378    -0.05100
N351        N  0.41495487  0.07485336  0.70819485    -0.57600
N352        N  0.45805326  0.45065446  0.71185565    -0.03200
N353        N  0.45423508  0.41923110  0.69993875    -0.58900
N354        N  0.43101970  0.45270778  0.72711584    -0.05100
N355        N  0.40787963  0.42254817  0.72572768    -0.57900
N356        N  0.46299629  0.03969882  0.69832949    -0.02900
N357        N  0.46103954  0.06617938  0.68262986    -0.59000
Mn358      Mn  0.00212247  0.49550511  0.70768737     1.18400
C359        C  0.43118616  0.08789406  0.68894480     0.99300
C360        C  0.42299518  0.40180478  0.70874156     1.00000
N361        N  0.07889855  0.05682701  0.76695844    -0.05200
N362        N  0.10666093  0.08177160  0.77080620    -0.61500
N363        N  0.05134787  0.47084502  0.79398795    -0.04000
N364        N  0.06103393  0.45050445  0.81178017    -0.62100
N365        N  0.07808060  0.46853935  0.77847053    -0.04700
N366        N  0.10640366  0.44648033  0.78553271    -0.61700
N367        N  0.05163900  0.06037083  0.78200997    -0.03600
N368        N  0.06034613  0.08797291  0.79622487    -0.62400
Mn369      Mn  0.07698370  0.50667576  0.74871877     1.10700
C370        C  0.09478400  0.10123043  0.78909930     1.00500
C371        C  0.09519576  0.43508860  0.80628190     1.00600
N372        N  0.43234491  0.46447050  0.77968827    -0.04700
N373        N  0.40518090  0.44121799  0.78706815    -0.60100
N374        N  0.45955057  0.06002770  0.78128099    -0.04000
N375        N  0.45000406  0.08711305  0.79555748    -0.56800
N376        N  0.43238240  0.05539500  0.76614312    -0.05300
N377        N  0.40366845  0.07894538  0.77017305    -0.59600
N378        N  0.45930182  0.46881308  0.79498391    -0.04300
N379        N  0.45074188  0.44860112  0.81307296    -0.56800
Mn380      Mn  0.42964453  0.50214392  0.75026730     1.20200
Mn381      Mn  0.00472660  0.51297211  0.79180645     1.10100
Cl382      Cl  0.00355206  0.50415457  0.74975959    -0.84800
C383        C  0.41708088  0.43123205  0.80788012     0.97600
C384        C  0.41512401  0.09889819  0.78849368     0.97400
N385        N  0.25787072  0.10466346  0.15398951    -0.35400
N386        N  0.31645933  0.10882516  0.11951073    -0.56000
N387        N  0.25559727  0.11478881  0.08628047    -0.35400
N388        N  0.19679167  0.10665043  0.12051321    -0.56000
C389        C  0.28956286  0.09062639  0.16435870     0.28200
C390        C  0.22674301  0.09065157  0.16498947     0.28200
C391        C  0.28663562  0.11096406  0.07294917     0.28200
C392        C  0.22407417  0.10881906  0.07350106     0.28200
C393        C  0.33754810  0.11621408  0.13806980     0.36800
C394        C  0.33574009  0.12421445  0.10203237     0.36800
C395        C  0.17721196  0.11508881  0.13937269     0.36800
C396        C  0.17613230  0.12067300  0.10319093     0.36800
C397        C  0.27832534  0.06669454  0.18181664    -0.20700
C398        C  0.23879657  0.06676975  0.18223613    -0.20700
C399        C  0.27479132  0.10186878  0.05139390    -0.20700
C400        C  0.23517412  0.10045306  0.05174817    -0.20700
C401        C  0.36999758  0.13721439  0.13241339    -0.21800
C402        C  0.36918461  0.14173874  0.10949832    -0.21800
C403        C  0.14437467  0.13547308  0.13403060    -0.21800
C404        C  0.14326020  0.13828976  0.11102561    -0.21800
C405        C  0.32802153  0.10168704  0.15950722    -0.17100
C406        C  0.18814015  0.10156637  0.16080146    -0.17100
C407        C  0.18618293  0.11631793  0.08045215    -0.17100
C408        C  0.32454366  0.12030824  0.07940322    -0.17100
H409        H  0.29658029  0.05083219  0.19319512     0.15800
H410        H  0.22106226  0.05098839  0.19397821     0.15800
H411        H  0.29272517  0.09820690  0.03677401     0.15800
H412        H  0.21665341  0.09560884  0.03742913     0.15800
H413        H  0.39167002  0.14879153  0.14351708     0.14100
H414        H  0.39051605  0.15662428  0.09952507     0.14100
H415        H  0.12363928  0.14766138  0.14538033     0.14100
H416        H  0.12125854  0.15240945  0.10123200     0.14100
H417        H  0.25751727  0.12619301  0.14182951     0.27300
H418        H  0.25577695  0.12650237  0.10227666     0.27300
N419        N  0.25632783  0.38960114  0.15862091    -0.35400
N420        N  0.31607044  0.36585880  0.12795957    -0.56000
N421        N  0.25702354  0.34680367  0.09467355    -0.35400
N422        N  0.19777448  0.37318136  0.12494311    -0.56000
C423        C  0.28852639  0.40313475  0.16887531     0.28200
C424        C  0.22593270  0.40916888  0.16690784     0.28200
C425        C  0.28916081  0.34445172  0.08208828     0.28200
C426        C  0.22676622  0.34765877  0.08044035     0.28200
C427        C  0.33624551  0.36615118  0.14734747     0.36800
C428        C  0.33630939  0.34455175  0.11336225     0.36800
C429        C  0.17425229  0.38360070  0.14184800     0.36800
C430        C  0.17503521  0.35971346  0.10829404     0.36800
C431        C  0.27834865  0.43159310  0.18385396    -0.20700
C432        C  0.23911010  0.43515700  0.18276537    -0.20700
C433        C  0.27920680  0.34339518  0.05956350    -0.20700
C434        C  0.23976764  0.34523177  0.05853226    -0.20700
C435        C  0.36890367  0.34393590  0.14521412    -0.21800
C436        C  0.36934940  0.33091296  0.12350888    -0.21800
C437        C  0.13629052  0.37734013  0.13558704    -0.21800
C438        C  0.13686260  0.36178089  0.11456181    -0.21800
C439        C  0.32646917  0.38887599  0.16604198    -0.17100
C440        C  0.18650067  0.40276165  0.16156292    -0.17100
C441        C  0.18776330  0.34886322  0.08676637    -0.17100
C442        C  0.32674061  0.33996666  0.09056493    -0.17100
H443        H  0.29708185  0.44827054  0.19456612     0.15800
H444        H  0.22245118  0.45479732  0.19271719     0.15800
H445        H  0.29829892  0.34080034  0.04536517     0.15800
H446        H  0.22261412  0.34472557  0.04338116     0.15800
H447        H  0.39024291  0.33760103  0.15787232     0.14100
H448        H  0.39128436  0.31320754  0.11607626     0.14100
H449        H  0.11042036  0.38456843  0.14451253     0.14100
H450        H  0.11183482  0.35442846  0.10465648     0.14100
H451        H  0.25478075  0.36553873  0.14844726     0.27300
H452        H  0.25565242  0.34371210  0.11197337     0.27300
C453        C  0.12203196  0.11864462  0.80503621    -0.15200
C454        C  0.15822637  0.10573383  0.80637378    -0.34000
H455        H  0.11115486  0.13835684  0.81750186     0.13800
H456        H  0.16852664  0.08599928  0.79371715     0.14400
C457        C  0.35176510  0.10356338  0.80612306    -0.15200
C458        C  0.38803024  0.11650013  0.80437295    -0.30400
H459        H  0.34098865  0.08347337  0.79370774     0.13800
H460        H  0.39927257  0.13661773  0.81660087     0.14400
C461        C  0.12183661  0.42070610  0.82358693    -0.15200
C462        C  0.15664698  0.40676773  0.81862323    -0.30400
H463        H  0.11338519  0.42412681  0.84096963     0.13800
H464        H  0.16492943  0.40476813  0.80111806     0.14400
C465        C  0.35520539  0.40409225  0.82012250    -0.15200
C466        C  0.39044266  0.41731330  0.82529204    -0.30400
H467        H  0.34711187  0.40185258  0.80257080     0.13800
H468        H  0.39883308  0.42106858  0.84268840     0.14400
C469        C  0.15707183  0.12342523  0.06359253    -0.12100
C470        C  0.13139029  0.13353259  0.05138835    -0.13600
C471        C  0.38022974  0.13723455  0.05090152    -0.12100
C472        C  0.35321191  0.12790115  0.06235268    -0.13600
C473        C  0.13286120  0.32766704  0.05841685    -0.12100
C474        C  0.15884797  0.33854080  0.07024895    -0.13600
C475        C  0.38358402  0.32195033  0.06309012    -0.12100
C476        C  0.35721123  0.33038509  0.07511913    -0.13600
C477        C  0.12795503  0.34267249  0.94208176    -0.12100
C478        C  0.15479828  0.35329710  0.93087656    -0.13600
C479        C  0.35226475  0.35124187  0.93235046    -0.12100
C480        C  0.37862041  0.34013519  0.94379425    -0.13600
C481        C  0.12886642  0.15190512  0.93265171    -0.12100
C482        C  0.15558361  0.14297500  0.92094036    -0.13600
C483        C  0.38167750  0.14845965  0.93370293    -0.12100
C484        C  0.35551897  0.13956298  0.92142523    -0.13600
C485        C  0.39368489  0.40536528  0.18004854    -0.15200
C486        C  0.35580580  0.39925094  0.18360556    -0.30400
H487        H  0.40669546  0.40084319  0.16380294     0.13800
H488        H  0.34510121  0.40479229  0.20037318     0.14400
C489        C  0.15715803  0.42121739  0.17620437    -0.15200
C490        C  0.12732136  0.40236886  0.18562635    -0.30400
H491        H  0.16107894  0.45138728  0.17995237     0.13800
H492        H  0.12270816  0.37212675  0.18238077     0.14400
C493        C  0.39551175  0.09158676  0.17538591    -0.15200
C494        C  0.35732966  0.09685142  0.17788382    -0.30400
H495        H  0.40934369  0.09273205  0.15917328     0.13800
H496        H  0.34625312  0.09470432  0.19486604     0.14400
C497        C  0.12170992  0.09158537  0.17774049    -0.15200
C498        C  0.15997347  0.09717104  0.17971022    -0.30400
H499        H  0.10720419  0.09176310  0.16169010     0.13800
H500        H  0.17193125  0.09576881  0.19654458     0.14400
C501        C  0.11662153  0.15298218  0.68570160    -0.15200
C502        C  0.09654312  0.12333537  0.67741579    -0.30400
H503        H  0.12350683  0.15440176  0.70345154     0.13800
H504        H  0.08705871  0.12435667  0.66004258     0.14400
C505        C  0.08625896  0.35230602  0.68155016    -0.15200
C506        C  0.10457526  0.37352975  0.69699499    -0.30400
H507        H  0.05669478  0.35860609  0.67709519     0.13800
H508        H  0.13413803  0.36728427  0.70146448     0.14400
C509        C  0.39634897  0.14921046  0.68321683    -0.15200
C510        C  0.41895760  0.12112069  0.67565960    -0.30400
H511        H  0.38686856  0.14945489  0.70055070     0.13800
H512        H  0.43055997  0.12326712  0.65878530     0.14400
C513        C  0.42263583  0.34938492  0.68172892    -0.15200
C514        C  0.40501113  0.36745828  0.69866598    -0.30400
H515        H  0.45057715  0.35931542  0.67601691     0.13800
H516        H  0.37669954  0.35829022  0.70415600     0.14400
C517        C  0.36108157  0.15449264  0.57109009    -0.12100
C518        C  0.35369561  0.12664193  0.55996595    -0.13600
C519        C  0.36831084  0.35227865  0.57137045    -0.12100
C520        C  0.35831325  0.37811813  0.55924527    -0.13600
C521        C  0.16773144  0.12926708  0.56329159    -0.12100
C522        C  0.15838520  0.15604179  0.57471984    -0.13600
C523        C  0.14948405  0.35231856  0.57279454    -0.12100
C524        C  0.16067500  0.37804792  0.56092561    -0.13600
C525        C  0.08516266  0.15516203  0.32138873    -0.15200
C526        C  0.09950474  0.11971571  0.31810921    -0.30400
H527        H  0.06253128  0.16533631  0.31033489     0.13800
H528        H  0.12328708  0.10948914  0.32824857     0.14400
C529        C  0.08888514  0.35046507  0.32210266    -0.15200
C530        C  0.10328494  0.38607182  0.31885028    -0.30400
H531        H  0.06556734  0.34055789  0.31142903     0.13800
H532        H  0.12769455  0.39616838  0.32855900     0.14400
C533        C  0.14380848  0.15145250  0.43313901    -0.12100
C534        C  0.15495112  0.12538920  0.44476989    -0.13600
C535        C  0.14872578  0.35055324  0.43349869    -0.12100
C536        C  0.15874772  0.37798110  0.44433428    -0.13600
C537        C  0.42889303  0.15033773  0.32246109    -0.15200
C538        C  0.40908623  0.12037795  0.31387582    -0.30400
H539        H  0.45853914  0.15454214  0.31736817     0.13800
H540        H  0.37931965  0.11544903  0.31845904     0.14400
C541        C  0.41033897  0.38632744  0.31828344    -0.15200
C542        C  0.40414904  0.34843170  0.31520167    -0.30400
H543        H  0.40812050  0.39942092  0.33464752     0.13800
H544        H  0.40756882  0.33766557  0.29826180     0.14400
C545        C  0.36043172  0.15299942  0.43204982    -0.12100
C546        C  0.35038175  0.12683630  0.44400209    -0.13600
C547        C  0.35432837  0.35105249  0.42735744    -0.12100
C548        C  0.34637240  0.37820722  0.43884116    -0.13600
N549        N  0.39782207  0.75235909  0.34055367    -0.35400
N550        N  0.38311679  0.81308635  0.37289662    -0.56000
N551        N  0.37121134  0.75479035  0.40755817    -0.35400
N552        N  0.38877436  0.69475440  0.37563121    -0.56000
C553        C  0.40915832  0.78416154  0.32907930     0.28200
C554        C  0.41482947  0.72164052  0.33088354     0.28200
C555        C  0.37186228  0.78689750  0.42017653     0.28200
C556        C  0.37379143  0.72449293  0.42167734     0.28200
C557        C  0.37897802  0.83280897  0.35348202     0.36800
C558        C  0.36586564  0.83395646  0.38900487     0.36800
C559        C  0.39457190  0.67091788  0.35813988     0.36800
C560        C  0.37800961  0.67257259  0.39320398     0.36800
C561        C  0.43343593  0.77338307  0.31182757    -0.20700
C562        C  0.43676986  0.73421081  0.31285587    -0.20700
C563        C  0.37496579  0.77687520  0.44264044    -0.20700
C564        C  0.37598383  0.73745283  0.44358798    -0.20700
C565        C  0.35817135  0.86590461  0.35722555    -0.21800
C566        C  0.35053819  0.86700746  0.37980608    -0.21800
C567        C  0.38826017  0.63332304  0.36491497    -0.21800
C568        C  0.37723823  0.63446010  0.38690113    -0.21800
C569        C  0.39659148  0.82233760  0.33304138    -0.17100
C570        C  0.40965073  0.68244427  0.33708915    -0.17100
C571        C  0.37190332  0.68557086  0.41533271    -0.17100
C572        C  0.36559054  0.82443140  0.41204425    -0.17100
H573        H  0.44760616  0.79167026  0.29968677     0.15800
H574        H  0.45352683  0.71714741  0.30142780     0.15800
H575        H  0.37531121  0.79591657  0.45691101     0.15800
H576        H  0.37767286  0.72027105  0.45869770     0.15800
H577        H  0.34924401  0.88709822  0.34504027     0.14100
H578        H  0.33503877  0.88930981  0.38842170     0.14100
H579        H  0.39231845  0.60726678  0.35558909     0.14100
H580        H  0.37093930  0.60973892  0.39728086     0.14100
H581        H  0.37662655  0.75140213  0.35278999     0.27300
H582        H  0.36448346  0.75348320  0.39062003     0.27300
N583        N  0.12005029  0.69396816  0.37837808    -0.35400
N584        N  0.13325828  0.75338848  0.41224767    -0.56000
N585        N  0.12355359  0.81269869  0.37816648    -0.35400
N586        N  0.10550560  0.75311455  0.34538764    -0.56000
C587        C  0.11881867  0.67310417  0.39750121     0.28200
C588        C  0.10365385  0.67255413  0.36202167     0.28200
C589        C  0.12294961  0.83388756  0.39714374     0.28200
C590        C  0.10776811  0.83419800  0.36160587     0.28200
C591        C  0.14321817  0.72215183  0.42435022     0.36800
C592        C  0.14431220  0.78417242  0.42440728     0.36800
C593        C  0.10425030  0.72199203  0.33186719     0.36800
C594        C  0.10584155  0.78426894  0.33176752     0.36800
C595        C  0.10177413  0.63788435  0.39326630    -0.20700
C596        C  0.09181346  0.63768967  0.37094134    -0.20700
C597        C  0.10733173  0.86945878  0.39251372    -0.20700
C598        C  0.09731778  0.86950223  0.37021504    -0.20700
C599        C  0.16013416  0.73315003  0.44440609    -0.21800
C600        C  0.16075519  0.77245483  0.44445745    -0.21800
C601        C  0.10407335  0.73350286  0.30959989    -0.21800
C602        C  0.10507995  0.77278225  0.30953498    -0.21800
C603        C  0.13498241  0.68395135  0.41826716    -0.17100
C604        C  0.09996768  0.68348810  0.33922189    -0.17100
C605        C  0.10291799  0.82287582  0.33894135    -0.17100
C606        C  0.13736242  0.82262632  0.41833929    -0.17100
H607        H  0.09686287  0.61477565  0.40508482     0.15800
H608        H  0.07742487  0.61443196  0.36237618     0.15800
H609        H  0.10292889  0.89277163  0.40411102     0.15800
H610        H  0.08340384  0.89288939  0.36155402     0.15800
H611        H  0.17039845  0.71479034  0.45777315     0.14100
H612        H  0.17163736  0.79034808  0.45783937     0.14100
H613        H  0.10278129  0.71550300  0.29488763     0.14100
H614        H  0.10464869  0.79085324  0.29475219     0.14100
H615        H  0.13499402  0.71954847  0.37619852     0.27300
H616        H  0.13705906  0.78646750  0.37619948     0.27300
N617        N  0.32528110  0.95709618  0.47553254    -0.04900
N618        N  0.34820330  0.92794002  0.47110982    -0.57100
N619        N  0.30081112  0.54786343  0.45895924    -0.04600
N620        N  0.30430728  0.57829979  0.44591308    -0.59200
N621        N  0.32888955  0.54674032  0.47374793    -0.04200
N622        N  0.35207719  0.57657240  0.47108097    -0.57000
N623        N  0.29714632  0.95844122  0.46079678    -0.03900
N624        N  0.30016796  0.93048585  0.44614015    -0.59500
C625        C  0.33187825  0.91165454  0.45279789     0.97200
C626        C  0.33619798  0.59594214  0.45372021     0.97000
N627        N  0.18464331  0.54786636  0.47650830    -0.05100
N628        N  0.16104110  0.57710413  0.47402481    -0.57600
N629        N  0.20776860  0.95939912  0.46272031    -0.03200
N630        N  0.20289224  0.93041487  0.44891510    -0.58900
N631        N  0.18135190  0.95903716  0.47846685    -0.05100
N632        N  0.15779428  0.92951628  0.47562932    -0.57900
N633        N  0.21089737  0.54831421  0.46068490    -0.02900
N634        N  0.20581279  0.57774335  0.44711388    -0.59000
Mn635      Mn  0.25508806  0.50405789  0.45845950     1.18400
C636        C  0.17487941  0.59542968  0.45571699     0.99300
C637        C  0.17183211  0.91205225  0.45713952     1.00000
N638        N  0.33182100  0.54399643  0.52616669    -0.05200
N639        N  0.35537884  0.57344922  0.52875435    -0.61500
N640        N  0.30154976  0.95636259  0.54451698    -0.04000
N641        N  0.30577880  0.92704548  0.55826450    -0.62100
N642        N  0.32775104  0.95580340  0.52864351    -0.04700
N643        N  0.35042823  0.92585578  0.53128517    -0.61700
N644        N  0.30557676  0.54367193  0.54199985    -0.03600
N645        N  0.31064886  0.57273970  0.55571501    -0.62400
Mn646      Mn  0.33113100  0.50078938  0.49942356     1.10700
C647        C  0.34161930  0.59092244  0.54721234     1.00500
C648        C  0.33610419  0.90829600  0.54974560     1.00600
N649        N  0.18405314  0.95893027  0.53127449    -0.04700
N650        N  0.16040253  0.92968620  0.53449740    -0.60100
N651        N  0.21608558  0.54485496  0.54390505    -0.04000
N652        N  0.21374359  0.57371884  0.55798970    -0.56800
N653        N  0.18801537  0.54611798  0.52912843    -0.05300
N654        N  0.16587539  0.57608974  0.53287548    -0.59600
N655        N  0.21193892  0.95834514  0.54618308    -0.04300
N656        N  0.20794505  0.92886486  0.55986404    -0.56800
Mn657      Mn  0.18407570  0.50260329  0.50237281     1.20200
Mn658      Mn  0.26004924  0.50020743  0.54328004     1.10100
Cl659      Cl  0.25759394  0.50181558  0.50088302    -0.84800
C660        C  0.17586080  0.91135277  0.55233711     0.97600
C661        C  0.18251267  0.59290374  0.55088134     0.97400
N662        N  0.39554616  0.80597625  0.62573014    -0.35400
N663        N  0.41228233  0.74661628  0.65848329    -0.56000
N664        N  0.39797389  0.69002283  0.62360574    -0.35400
N665        N  0.37970679  0.74922837  0.59145527    -0.56000
C666        C  0.39734776  0.82677939  0.64481623     0.28200
C667        C  0.37871119  0.82805207  0.60984747     0.28200
C668        C  0.40024713  0.66742096  0.64199427     0.28200
C669        C  0.38218710  0.66877542  0.60703947     0.28200
C670        C  0.42615511  0.77732268  0.66967595     0.36800
C671        C  0.42713570  0.71527992  0.66858086     0.36800
C672        C  0.37713444  0.78090261  0.57855515     0.36800
C673        C  0.37871313  0.71902487  0.57744072     0.36800
C674        C  0.38156791  0.86259381  0.64097578    -0.20700
C675        C  0.36959374  0.86330876  0.61899766    -0.20700
C676        C  0.38573916  0.63133416  0.63706630    -0.20700
C677        C  0.37419756  0.63222960  0.61505286    -0.20700
C678        C  0.44909645  0.76540090  0.68737507    -0.21800
C679        C  0.44966418  0.72600956  0.68669670    -0.21800
C680        C  0.37420779  0.77080356  0.55614202    -0.21800
C681        C  0.37521674  0.73148575  0.55543798    -0.21800
C682        C  0.41688860  0.81577712  0.66464309    -0.17100
C683        C  0.37400804  0.81840651  0.58696144    -0.17100
C684        C  0.37742195  0.68053783  0.58451976    -0.17100
C685        C  0.41917965  0.67717620  0.66214663    -0.17100
H686        H  0.37953455  0.88618464  0.65258540     0.15800
H687        H  0.35655015  0.88748676  0.61057702     0.15800
H688        H  0.38440854  0.60655099  0.64798138     0.15800
H689        H  0.36213546  0.60833535  0.60587651     0.15800
H690        H  0.46377743  0.78318593  0.69952830     0.14100
H691        H  0.46490784  0.70742535  0.69818846     0.14100
H692        H  0.37085052  0.78972386  0.54186148     0.14100
H693        H  0.37277258  0.71407548  0.54052541     0.14100
H694        H  0.40985005  0.78047833  0.62289640     0.27300
H695        H  0.41147081  0.71638766  0.62165246     0.27300
N696        N  0.13463790  0.69227789  0.62992590    -0.35400
N697        N  0.14374148  0.75093082  0.59582892    -0.56000
N698        N  0.12406583  0.80786425  0.62898620    -0.35400
N699        N  0.11895153  0.74968235  0.66404510    -0.56000
C700        C  0.15067447  0.67185970  0.61315519     0.28200
C701        C  0.13827455  0.67139261  0.64897732     0.28200
C702        C  0.13750011  0.83073841  0.61236487     0.28200
C703        C  0.12090920  0.82970705  0.64753748     0.28200
C704        C  0.14591424  0.71999631  0.58242304     0.36800
C705        C  0.14240780  0.78185599  0.58221468     0.36800
C706        C  0.11011057  0.71768586  0.67581722     0.36800
C707        C  0.10185004  0.77908174  0.67472595     0.36800
C708        C  0.16470868  0.63765515  0.62167552    -0.20700
C709        C  0.15706466  0.63746267  0.64427342    -0.20700
C710        C  0.14292713  0.86755130  0.62053203    -0.20700
C711        C  0.13216288  0.86694657  0.64266159    -0.20700
C712        C  0.14632512  0.73130392  0.56010870    -0.21800
C713        C  0.14424049  0.77060422  0.55998251    -0.21800
C714        C  0.08820029  0.72694526  0.69438577    -0.21800
C715        C  0.08288917  0.76591198  0.69365590    -0.21800
C716        C  0.15098842  0.68219055  0.59019430    -0.17100
C717        C  0.12156965  0.68030228  0.66995949    -0.17100
C718        C  0.10445804  0.81778078  0.66801404    -0.17100
C719        C  0.14250123  0.82006332  0.58971785    -0.17100
H720        H  0.17871070  0.61498001  0.61253221     0.15800
H721        H  0.16385151  0.61453453  0.65585891     0.15800
H722        H  0.15277720  0.89255809  0.61139265     0.15800
H723        H  0.13214882  0.89134151  0.65378020     0.15800
H724        H  0.14879614  0.71322200  0.54549593     0.14100
H725        H  0.14458638  0.78882095  0.54525770     0.14100
H726        H  0.07671973  0.70762594  0.70695122     0.14100
H727        H  0.06687587  0.78261107  0.70564456     0.14100
H728        H  0.11768223  0.71642693  0.62795733     0.27300
H729        H  0.11289149  0.78045143  0.62715804     0.27300
N730        N  0.46277394  0.92794793  0.27227363    -0.04900
N731        N  0.45791607  0.90027982  0.28707739    -0.57100
N732        N  0.43292936  0.95742680  0.22386776    -0.04600
N733        N  0.40508445  0.95223520  0.20920422    -0.59200
N734        N  0.46076010  0.93262005  0.22074678    -0.04200
N735        N  0.45196664  0.90978211  0.20370101    -0.57000
N736        N  0.43751424  0.95538755  0.27528387    -0.03900
N737        N  0.41465266  0.94653518  0.29232647    -0.59500
C738        C  0.42795283  0.91203153  0.29944109     0.97200
C739        C  0.41703315  0.92255971  0.19674676     0.97000
N740        N  0.46053725  0.57062030  0.22175913    -0.05100
N741        N  0.45217665  0.59344947  0.20462986    -0.57600
N742        N  0.43623653  0.54971299  0.27583063    -0.03200
N743        N  0.41152572  0.56090128  0.29137898    -0.58900
N744        N  0.46293768  0.57614146  0.27310263    -0.05100
N745        N  0.45790218  0.60476672  0.28701432    -0.57900
N746        N  0.43271768  0.54545679  0.22478110    -0.02900
N747        N  0.40516458  0.55038850  0.20992120    -0.59000
Mn748      Mn  0.43406104  0.00198660  0.24974910     1.18400
C749        C  0.41756185  0.58020072  0.19745504     0.99300
C750        C  0.42597081  0.59511926  0.29841076     1.00000
N751        N  0.05663952  0.93252081  0.22269397    -0.05200
N752        N  0.06747202  0.90892538  0.20653035    -0.61500
N753        N  0.07627550  0.95554883  0.27707600    -0.04000
N754        N  0.09931598  0.94590097  0.29392404    -0.62100
N755        N  0.05045374  0.92839981  0.27386495    -0.04700
N756        N  0.05471501  0.90057877  0.28857500    -0.61700
N757        N  0.08326572  0.95890846  0.22583051    -0.03600
N758        N  0.11172088  0.95471474  0.21158792    -0.62400
Mn759      Mn  0.00770978  0.92903239  0.24676312     1.10700
C760        C  0.10169089  0.92366106  0.19956933     1.00500
C761        C  0.08513473  0.91157309  0.30102301     1.00600
N762        N  0.05037194  0.57681087  0.27408544    -0.04700
N763        N  0.05404102  0.60479779  0.28863259    -0.60100
N764        N  0.08270644  0.54663550  0.22627513    -0.04000
N765        N  0.11062084  0.55155626  0.21167491    -0.56800
N766        N  0.05481244  0.57118811  0.22264227    -0.05300
N767        N  0.06345149  0.59356651  0.20533924    -0.59600
N768        N  0.07655415  0.55037501  0.27751626    -0.04300
N769        N  0.09928066  0.56067125  0.29439630    -0.56800
Mn770      Mn  0.00724735  0.57451013  0.24730736     1.20200
Mn771      Mn  0.08064015  0.00277311  0.25191112     1.10100
Cl772      Cl  0.00746845  0.00182920  0.24854760    -0.84800
C773        C  0.08448132  0.59467052  0.30125270     0.97600
C774        C  0.09839569  0.58078730  0.19875626     0.97400
N775        N  0.46194494  0.67682166  0.97128623    -0.04900
N776        N  0.43224929  0.65351142  0.96829164    -0.57100
N777        N  0.05079868  0.70349443  0.95556260    -0.04600
N778        N  0.07947390  0.69871443  0.94150603    -0.59200
N779        N  0.05100732  0.67676513  0.97117720    -0.04200
N780        N  0.08005316  0.65314575  0.96806654    -0.57000
N781        N  0.46250534  0.70335775  0.95554344    -0.03900
N782        N  0.43344893  0.69880770  0.94160056    -0.59500
C783        C  0.41483846  0.66785009  0.94975091     0.97200
C784        C  0.09742135  0.66745566  0.94955849     0.97000
N785        N  0.05110070  0.82093215  0.96920623    -0.05100
N786        N  0.08073899  0.84411905  0.96591432    -0.57600
N787        N  0.46275043  0.79266321  0.95418707    -0.03200
N788        N  0.43365673  0.79632335  0.94017761    -0.58900
N789        N  0.46237450  0.82005244  0.96926063    -0.05100
N790        N  0.43290791  0.84306597  0.96578800    -0.57900
N791        N  0.05114344  0.79315581  0.95436441    -0.02900
N792        N  0.08062320  0.79680686  0.94066563    -0.59000
Mn793      Mn  0.00692007  0.74810366  0.95435439     1.18400
C794        C  0.09879567  0.82850471  0.94812615     0.99300
C795        C  0.41533453  0.82765144  0.94768006     1.00000
N796        N  0.05262804  0.67863438  0.02388161    -0.05200
N797        N  0.08205396  0.65545740  0.02727190    -0.61500
N798        N  0.46452745  0.70640045  0.03938325    -0.04000
N799        N  0.43531649  0.70360660  0.05331438    -0.62100
N800        N  0.46323878  0.67888008  0.02439724    -0.04700
N801        N  0.43295466  0.65660152  0.02790378    -0.61700
N802        N  0.05311285  0.70651027  0.03866163    -0.03600
N803        N  0.08260255  0.70296476  0.05238611    -0.62400
Mn804      Mn  0.00710240  0.67606989  0.99783974     1.10700
C805        C  0.10043409  0.67126909  0.04502754     1.00500
C806        C  0.41593128  0.67261704  0.04594108     1.00600
N807        N  0.46290116  0.82145181  0.02230398    -0.04700
N808        N  0.43270679  0.84369916  0.02541806    -0.60100
N809        N  0.05287483  0.79628732  0.03727987    -0.04000
N810        N  0.08279701  0.80129553  0.05056333    -0.56800
N811        N  0.05201810  0.82295358  0.02164265    -0.05300
N812        N  0.08148631  0.84668515  0.02393565    -0.59600
N813        N  0.46440772  0.79501304  0.03805946    -0.04300
N814        N  0.43553342  0.79850157  0.05211584    -0.56800
Mn815      Mn  0.00679285  0.82285403  0.99569489     1.20200
Mn816      Mn  0.00893333  0.75092033  0.03914528     1.10100
Cl817      Cl  0.00745406  0.74946772  0.99675322    -0.84800
C818        C  0.41603139  0.82875542  0.04404216     0.97600
C819        C  0.10038423  0.83258148  0.04196658     0.97400
N820        N  0.19816112  0.88667346  0.87077115    -0.35400
N821        N  0.25691610  0.87047671  0.90385653    -0.56000
N822        N  0.31548104  0.88343436  0.87016409    -0.35400
N823        N  0.25681514  0.89675052  0.83657849    -0.56000
C824        C  0.17751249  0.86894828  0.88701207     0.28200
C825        C  0.17740227  0.88439021  0.85160486     0.28200
C826        C  0.33605239  0.86604607  0.88651360     0.28200
C827        C  0.33614165  0.88111551  0.85102049     0.28200
C828        C  0.22601515  0.87029453  0.91747669     0.36800
C829        C  0.28815562  0.86917988  0.91725964     0.36800
C830        C  0.22596179  0.91096296  0.82563318     0.36800
C831        C  0.28808779  0.90925627  0.82526769     0.36800
C832        C  0.14337111  0.85519925  0.87805176    -0.20700
C833        C  0.14351729  0.86454914  0.85565547    -0.20700
C834        C  0.37009592  0.85237737  0.87763316    -0.20700
C835        C  0.36996273  0.86155345  0.85519512    -0.20700
C836        C  0.23760794  0.86899211  0.93971480    -0.21800
C837        C  0.27709531  0.86831366  0.93957978    -0.21800
C838        C  0.23768568  0.93271720  0.80736419    -0.21800
C839        C  0.27705058  0.93161165  0.80712265    -0.21800
C840        C  0.18789143  0.86641152  0.90986850    -0.17100
C841        C  0.18748354  0.90196830  0.83101353    -0.17100
C842        C  0.32622768  0.89877961  0.83040838    -0.17100
C843        C  0.32594593  0.86422053  0.90943064    -0.17100
H844        H  0.12075702  0.83980577  0.88671304     0.15800
H845        H  0.12110049  0.85753557  0.84375398     0.15800
H846        H  0.39276225  0.83738873  0.88640446     0.15800
H847        H  0.39243606  0.85482959  0.84337754     0.15800
H848        H  0.21951677  0.86731114  0.95442159     0.14100
H849        H  0.29548009  0.86602445  0.95417312     0.14100
H850        H  0.21985200  0.94774398  0.79537876     0.14100
H851        H  0.29533530  0.94569690  0.79494397     0.14100
H852        H  0.22289469  0.90306689  0.87312312     0.27300
H853        H  0.29108697  0.89999949  0.87250123     0.27300
N854        N  0.25514730  0.63077059  0.90481983    -0.35400
N855        N  0.31428200  0.62373066  0.87092930    -0.56000
N856        N  0.25444508  0.61261129  0.83752891    -0.35400
N857        N  0.19531760  0.62372432  0.87043512    -0.56000
C858        C  0.28638855  0.64308653  0.91630069     0.28200
C859        C  0.22381127  0.64259469  0.91610995     0.28200
C860        C  0.28583677  0.61725655  0.82450542     0.28200
C861        C  0.22336422  0.61764057  0.82420528     0.28200
C862        C  0.33569205  0.62033078  0.88974295     0.36800
C863        C  0.33548518  0.60941251  0.85401313     0.36800
C864        C  0.17420001  0.61976812  0.88925885     0.36800
C865        C  0.17352919  0.61020128  0.85339847     0.36800
C866        C  0.27477537  0.66278392  0.93522596    -0.20700
C867        C  0.23521367  0.66245503  0.93511715    -0.20700
C868        C  0.27461981  0.62579344  0.80272699    -0.20700
C869        C  0.23516976  0.62605114  0.80254113    -0.20700
C870        C  0.37082719  0.60409918  0.88480814    -0.21800
C871        C  0.37045376  0.59651264  0.86222266    -0.21800
C872        C  0.13865368  0.60400068  0.88421034    -0.21800
C873        C  0.13845241  0.59730516  0.86153462    -0.21800
C874        C  0.32479157  0.63431013  0.91090360    -0.17100
C875        C  0.18550184  0.63324326  0.91051840    -0.17100
C876        C  0.18489043  0.61096737  0.83062128    -0.17100
C877        C  0.32397272  0.60985004  0.83122497    -0.17100
H878        H  0.29288953  0.67545441  0.94799149     0.15800
H879        H  0.21695477  0.67486045  0.94778963     0.15800
H880        H  0.29296462  0.63042737  0.78833369     0.15800
H881        H  0.21721598  0.63095106  0.78798633     0.15800
H882        H  0.39409788  0.59803541  0.89632227     0.14100
H883        H  0.39342050  0.58301367  0.85306373     0.14100
H884        H  0.11543852  0.59771701  0.89570820     0.14100
H885        H  0.11511629  0.58421562  0.85230298     0.14100
H886        H  0.25510852  0.61161510  0.89152705     0.27300
H887        H  0.25429119  0.60106726  0.85362180     0.27300
N888        N  0.07957065  0.95741430  0.72147620    -0.04900
N889        N  0.10247087  0.92728254  0.72111080    -0.57100
N890        N  0.04557607  0.54017102  0.70428106    -0.04600
N891        N  0.04800070  0.56533686  0.68787693    -0.59200
N892        N  0.07290525  0.54572073  0.71917934    -0.04200
N893        N  0.09447489  0.57546186  0.71319266    -0.57000
N894        N  0.05237052  0.95370465  0.70633632    -0.03900
N895        N  0.05585507  0.92116618  0.69548597    -0.59500
C896        C  0.08705212  0.90483504  0.70489597     0.97200
C897        C  0.07828836  0.58727548  0.69361768     0.97000
N898        N  0.42994430  0.54144354  0.72138985    -0.05100
N899        N  0.40904493  0.57250140  0.71827381    -0.57600
N900        N  0.46368780  0.95257048  0.70572886    -0.03200
N901        N  0.46095348  0.92047074  0.69434632    -0.58900
N902        N  0.43557558  0.95543233  0.72027648    -0.05100
N903        N  0.41270966  0.92503802  0.71884687    -0.57900
N904        N  0.45662338  0.53899759  0.70591648    -0.02900
N905        N  0.45467252  0.56845931  0.69205672    -0.59000
Mn906      Mn  0.00787174  0.99664633  0.70174729     1.18400
C907        C  0.42485270  0.58901769  0.69993192     0.99300
C908        C  0.42923319  0.90336619  0.70269148     1.00000
N909        N  0.07600567  0.55493593  0.77229836    -0.05200
N910        N  0.10424838  0.57922586  0.77648029    -0.61500
N911        N  0.05250227  0.97371806  0.78903495    -0.04000
N912        N  0.06168033  0.95367664  0.80706144    -0.62100
N913        N  0.07936610  0.97039932  0.77369563    -0.04700
N914        N  0.10707705  0.94791283  0.78095480    -0.61700
N915        N  0.04940389  0.55747136  0.78784824    -0.03600
N916        N  0.05900457  0.58385742  0.80265662    -0.62400
Mn917      Mn  0.08036660  0.00771876  0.74401766     1.10700
C918        C  0.09324214  0.59740755  0.79539883     1.00500
C919        C  0.09560973  0.93742403  0.80175566     1.00600
N920        N  0.43360023  0.96906345  0.77297521    -0.04700
N921        N  0.40615273  0.94586462  0.78014006    -0.60100
N922        N  0.45800238  0.55550458  0.78832479    -0.04000
N923        N  0.44915659  0.58282435  0.80259645    -0.56800
N924        N  0.43034133  0.55092076  0.77352907    -0.05300
N925        N  0.40214085  0.57492146  0.77759193    -0.59600
N926        N  0.46004576  0.97347623  0.78858645    -0.04300
N927        N  0.45092033  0.95341497  0.80661784    -0.56800
Mn928      Mn  0.43293918  0.00601748  0.74298028     1.20200
Mn929      Mn  0.00644400  0.01659502  0.78571451     1.10100
Cl930      Cl  0.00703771  0.00670991  0.74374050    -0.84800
C931        C  0.41747246  0.93600211  0.80110848     0.97600
C932        C  0.41423124  0.59486004  0.79573880     0.97400
N933        N  0.25769566  0.61815775  0.15936781    -0.35400
N934        N  0.31702907  0.62570321  0.12524505    -0.56000
N935        N  0.25736540  0.63591631  0.09171250    -0.35400
N936        N  0.19798172  0.62415601  0.12529854    -0.56000
C937        C  0.28918708  0.60384329  0.16983428     0.28200
C938        C  0.22633064  0.60365098  0.16994697     0.28200
C939        C  0.28870077  0.63272941  0.07854151     0.28200
C940        C  0.22610033  0.63129294  0.07851984     0.28200
C941        C  0.33815128  0.63016964  0.14409806     0.36800
C942        C  0.33755853  0.64151113  0.10836413     0.36800
C943        C  0.17699249  0.62880337  0.14412425     0.36800
C944        C  0.17711348  0.63889851  0.10824022     0.36800
C945        C  0.27759028  0.57971196  0.18711307    -0.20700
C946        C  0.23810060  0.57962580  0.18719746    -0.20700
C947        C  0.27728914  0.62567368  0.05664461    -0.20700
C948        C  0.23766517  0.62473832  0.05663262    -0.20700
C949        C  0.37191847  0.64965612  0.13923939    -0.21800
C950        C  0.37183605  0.65629292  0.11651290    -0.21800
C951        C  0.14298829  0.64741175  0.13905474    -0.21800
C952        C  0.14274858  0.65318081  0.11624341    -0.21800
C953        C  0.32791618  0.61398247  0.16502353    -0.17100
C954        C  0.18756453  0.61343168  0.16521619    -0.17100
C955        C  0.18792878  0.63753858  0.08546312    -0.17100
C956        C  0.32668701  0.64036551  0.08557686    -0.17100
H957        H  0.29556556  0.56351989  0.19848174     0.15800
H958        H  0.22021686  0.56335356  0.19862809     0.15800
H959        H  0.29554805  0.62280082  0.04209557     0.15800
H960        H  0.21945845  0.62106014  0.04206199     0.15800
H961        H  0.39423859  0.65846525  0.15078038     0.14100
H962        H  0.39428749  0.67060009  0.10710427     0.14100
H963        H  0.12071971  0.65624434  0.15049767     0.14100
H964        H  0.12008103  0.66671767  0.10669016     0.14100
H965        H  0.25761323  0.63977182  0.14727740     0.27300
H966        H  0.25724338  0.64608350  0.10806788     0.27300
N967        N  0.25638954  0.89851949  0.15442068    -0.35400
N968        N  0.31664005  0.88193687  0.12213642    -0.56000
N969        N  0.25745193  0.87048504  0.08783153    -0.35400
N970        N  0.19790217  0.88995366  0.11978847    -0.56000
C971        C  0.28862582  0.90977460  0.16555514     0.28200
C972        C  0.22598844  0.91630626  0.16403251     0.28200
C973        C  0.28950334  0.87018613  0.07508143     0.28200
C974        C  0.22704766  0.87350026  0.07382633     0.28200
C975        C  0.33638919  0.87751439  0.14153628     0.36800
C976        C  0.33656918  0.86327705  0.10616014     0.36800
C977        C  0.17437043  0.89603097  0.13742774     0.36800
C978        C  0.17532286  0.87900995  0.10245471     0.36800
C979        C  0.27844041  0.93504544  0.18239578    -0.20700
C980        C  0.23920214  0.93888817  0.18156611    -0.20700
C981        C  0.27936644  0.87320718  0.05263400    -0.20700
C982        C  0.23987219  0.87509322  0.05183990    -0.20700
C983        C  0.36848727  0.85508628  0.13792683    -0.21800
C984        C  0.36900386  0.84670539  0.11542831    -0.21800
C985        C  0.13651368  0.88985439  0.13098624    -0.21800
C986        C  0.13719619  0.87856830  0.10901902    -0.21800
C987        C  0.32655902  0.89590343  0.16184040    -0.17100
C988        C  0.18650916  0.91099026  0.15835492    -0.17100
C989        C  0.18811621  0.87216222  0.08035327    -0.17100
C990        C  0.32694568  0.86300875  0.08314672    -0.17100
H991        H  0.29716075  0.94946922  0.19417666     0.15800
H992        H  0.22255197  0.95641013  0.19280402     0.15800
H993        H  0.29834268  0.87283706  0.03829113     0.15800
H994        H  0.22253937  0.87685998  0.03678857     0.15800
H995        H  0.38923993  0.84531018  0.15015070     0.14100
H996        H  0.39048267  0.82988406  0.10691768     0.14100
H997        H  0.11066838  0.89407606  0.14059633     0.14100
H998        H  0.11223356  0.87217505  0.09883577     0.14100
H999        H  0.25484856  0.87671131  0.14262913     0.27300
H1000       H  0.25615420  0.86399493  0.10481412     0.27300
C1001       C  0.12101902  0.61415935  0.81130833    -0.15200
C1002       C  0.15717813  0.60101942  0.81243559    -0.34000
H1003       H  0.11048376  0.63378539  0.82391580     0.13800
H1004       H  0.16717185  0.58141137  0.79962634     0.14400
C1005       C  0.35117739  0.59885347  0.81324306    -0.15200
C1006       C  0.38733893  0.61205744  0.81172964    -0.30400
H1007       H  0.34060182  0.57871767  0.80079132     0.13800
H1008       H  0.39840766  0.63223050  0.82397839     0.14400
C1009       C  0.12253290  0.92383187  0.81905486    -0.15200
C1010       C  0.15739031  0.91021190  0.81380941    -0.30400
H1011       H  0.11445001  0.92770671  0.83646087     0.13800
H1012       H  0.16517265  0.90784845  0.79624080     0.14400
C1013       C  0.35628697  0.90663080  0.81313798    -0.15200
C1014       C  0.39080797  0.92151703  0.81834662    -0.30400
H1015       H  0.34844372  0.90373533  0.79558098     0.13800
H1016       H  0.39871151  0.92592762  0.83576824     0.14400
C1017       C  0.15877987  0.64521533  0.06864551    -0.12100
C1018       C  0.13279548  0.65488933  0.05649051    -0.13600
C1019       C  0.38239226  0.65786169  0.05705047    -0.12100
C1020       C  0.35583272  0.64865241  0.06889698    -0.13600
C1021       C  0.13321632  0.85031825  0.05231118    -0.12100
C1022       C  0.15940246  0.86209481  0.06368326    -0.13600
C1023       C  0.38309963  0.84412029  0.05528573    -0.12100
C1024       C  0.35681829  0.85359240  0.06717517    -0.13600
C1025       C  0.13174965  0.84478770  0.93715310    -0.12100
C1026       C  0.15823989  0.85579116  0.92578761    -0.13600
C1027       C  0.35569080  0.85393635  0.92533031    -0.12100
C1028       C  0.38229426  0.84340962  0.93670226    -0.13600
C1029       C  0.12956814  0.65058437  0.93850782    -0.12100
C1030       C  0.15570762  0.64069358  0.92674326    -0.13600
C1031       C  0.38160135  0.65169623  0.93888981    -0.12100
C1032       C  0.35487305  0.64219592  0.92718266    -0.13600
C1033       C  0.39397108  0.90733060  0.17781703    -0.15200
C1034       C  0.35566327  0.90198807  0.18031793    -0.30400
H1035       H  0.40781272  0.90497815  0.16165016     0.13800
H1036       H  0.34441504  0.90519159  0.19717540     0.14400
C1037       C  0.15716074  0.92662293  0.17413672    -0.15200
C1038       C  0.12757191  0.90622263  0.18280954    -0.30400
H1039       H  0.16110620  0.95607146  0.17948065     0.13800
H1040       H  0.12290043  0.87662920  0.17797637     0.14400
C1041       C  0.39444350  0.59663303  0.17910281    -0.15200
C1042       C  0.35746217  0.60599871  0.18281674    -0.30400
H1043       H  0.40662757  0.59651377  0.16241836     0.13800
H1044       H  0.34745456  0.60460415  0.20005056     0.14400
C1045       C  0.12127781  0.59618020  0.17996845    -0.15200
C1046       C  0.15842713  0.60584840  0.18328473    -0.30400
H1047       H  0.10862290  0.59530946  0.16338201     0.13800
H1048       H  0.16891148  0.60518410  0.20046232     0.14400
C1049       C  0.11316843  0.64831306  0.68589803    -0.15200
C1050       C  0.09167495  0.61861901  0.67903293    -0.30400
H1051       H  0.12130711  0.65087640  0.70342044     0.13800
H1052       H  0.08097274  0.61847947  0.66189084     0.14400
C1053       C  0.08538882  0.84751930  0.68156030    -0.15200
C1054       C  0.10453169  0.86942338  0.69633539    -0.30400
H1055       H  0.05594880  0.85433075  0.67706395     0.13800
H1056       H  0.13397692  0.86272952  0.70083057     0.14400
C1057       C  0.43435671  0.64520651  0.67583695    -0.15200
C1058       C  0.41206874  0.62565009  0.69022940    -0.30400
H1059       H  0.46314774  0.63531729  0.67208944     0.13800
H1060       H  0.38346829  0.63588781  0.69413236     0.14400
C1061       C  0.43339054  0.84664577  0.67882544    -0.15200
C1062       C  0.41243104  0.86824281  0.69283866    -0.30400
H1063       H  0.46365345  0.85309105  0.67636771     0.13800
H1064       H  0.38246783  0.86132327  0.69591496     0.14400
C1065       C  0.36811583  0.65133110  0.56826887    -0.12100
C1066       C  0.35782121  0.62451742  0.55714380    -0.13600
C1067       C  0.36330284  0.84867167  0.57154995    -0.12100
C1068       C  0.35242523  0.87528352  0.56035594    -0.13600
C1069       C  0.16816280  0.62604120  0.56220540    -0.12100
C1070       C  0.15937688  0.65251560  0.57401889    -0.13600
C1071       C  0.15062397  0.85027467  0.57369532    -0.12100
C1072       C  0.16026133  0.87754339  0.56259098    -0.13600
C1073       C  0.08569029  0.65507118  0.32238438    -0.15200
C1074       C  0.10090991  0.62004412  0.31882460    -0.30400
H1075       H  0.06218927  0.66458429  0.31175873     0.13800
H1076       H  0.12543707  0.61043647  0.32855593     0.14400
C1077       C  0.08811906  0.85103496  0.32208446    -0.15200
C1078       C  0.10276687  0.88639825  0.31827841    -0.30400
H1079       H  0.06428223  0.84115831  0.31179793     0.13800
H1080       H  0.12757118  0.89650899  0.32763537     0.14400
C1081       C  0.14501787  0.65366008  0.43381659    -0.12100
C1082       C  0.15686977  0.62744068  0.44498840    -0.13600
C1083       C  0.14560877  0.85254374  0.43459745    -0.12100
C1084       C  0.15529902  0.87903754  0.44634268    -0.13600
C1085       C  0.42623975  0.65271048  0.32196472    -0.15200
C1086       C  0.40684000  0.62206956  0.31386041    -0.30400
H1087       H  0.45594111  0.65690233  0.31696946     0.13800
H1088       H  0.37697990  0.61721532  0.31825379     0.14400
C1089       C  0.41217235  0.88886654  0.31805734    -0.15200
C1090       C  0.40363676  0.85149422  0.31481514    -0.30400
H1091       H  0.41200336  0.90153183  0.33460173     0.13800
H1092       H  0.40511660  0.84099203  0.29771632     0.14400
C1093       C  0.36272562  0.65683326  0.43225507    -0.12100
C1094       C  0.35221374  0.62992474  0.44354017    -0.13600
C1095       C  0.35679247  0.85441104  0.42804757    -0.12100
C1096       C  0.34742431  0.88007222  0.44038802    -0.13600
N1097       N  0.89833678  0.24908329  0.34049708    -0.35400
N1098       N  0.88100567  0.30920194  0.37244477    -0.56000
N1099       N  0.86814233  0.25073058  0.40708314    -0.35400
N1100       N  0.88862852  0.19112895  0.37557333    -0.56000
C1101       C  0.90964905  0.28107745  0.32917154     0.28200
C1102       C  0.91638035  0.21867365  0.33117378     0.28200
C1103       C  0.86767157  0.28286358  0.41966132     0.28200
C1104       C  0.87018282  0.22052546  0.42128803     0.28200
C1105       C  0.87723179  0.32891106  0.35300365     0.36800
C1106       C  0.86272286  0.32968494  0.38830313     0.36800
C1107       C  0.89623791  0.16745864  0.35825298     0.36800
C1108       C  0.87785419  0.16864657  0.39302965     0.36800
C1109       C  0.93501658  0.27071706  0.31238010    -0.20700
C1110       C  0.93899251  0.23161443  0.31351072    -0.20700
C1111       C  0.86923640  0.27296081  0.44219391    -0.20700
C1112       C  0.87057707  0.23357282  0.44321982    -0.20700
C1113       C  0.85545233  0.36146126  0.35645245    -0.21800
C1114       C  0.84701848  0.36240495  0.37892043    -0.21800
C1115       C  0.89116844  0.12968106  0.36504473    -0.21800
C1116       C  0.87900954  0.13050052  0.38685057    -0.21800
C1117       C  0.89618249  0.31902796  0.33289519    -0.17100
C1118       C  0.91155809  0.17941078  0.33732474    -0.17100
C1119       C  0.86989650  0.18156553  0.41498183    -0.17100
C1120       C  0.86205906  0.32034992  0.41133057    -0.17100
H1121       H  0.94950191  0.28921988  0.30048218     0.15800
H1122       H  0.95668962  0.21487361  0.30241023     0.15800
H1123       H  0.86846351  0.29205132  0.45643157     0.15800
H1124       H  0.87152964  0.21648118  0.45838839     0.15800
H1125       H  0.84640369  0.38240313  0.34415194     0.14100
H1126       H  0.83071145  0.38435153  0.38733864     0.14100
H1127       H  0.89677010  0.10379779  0.35581444     0.14100
H1128       H  0.87318751  0.10564765  0.39721994     0.14100
H1129       H  0.87653541  0.24767866  0.35235363     0.27300
H1130       H  0.86284011  0.24934073  0.38998355     0.27300
N1131       N  0.62035827  0.19210056  0.37742609    -0.35400
N1132       N  0.63521259  0.25078804  0.41123017    -0.56000
N1133       N  0.62428642  0.31051124  0.37751891    -0.35400
N1134       N  0.60526728  0.25187383  0.34479550    -0.56000
C1135       C  0.61889949  0.17119136  0.39653981     0.28200
C1136       C  0.60280788  0.17135443  0.36119534     0.28200
C1137       C  0.62414397  0.33121615  0.39663950     0.28200
C1138       C  0.60775464  0.33226986  0.36135034     0.28200
C1139       C  0.64596802  0.21936729  0.42291031     0.36800
C1140       C  0.64786294  0.28136281  0.42302419     0.36800
C1141       C  0.60408999  0.22093114  0.33117276     0.36800
C1142       C  0.60585289  0.28313722  0.33127593     0.36800
C1143       C  0.60048479  0.13662551  0.39242223    -0.20700
C1144       C  0.58996201  0.13688422  0.37017149    -0.20700
C1145       C  0.60781867  0.36667762  0.39254237    -0.20700
C1146       C  0.59707444  0.36718804  0.37036085    -0.20700
C1147       C  0.66516573  0.23003124  0.44232189    -0.21800
C1148       C  0.66632359  0.26936048  0.44240149    -0.21800
C1149       C  0.60428747  0.23265306  0.30893624    -0.21800
C1150       C  0.60536328  0.27193497  0.30900313    -0.21800
C1151       C  0.63610191  0.18142217  0.41713080    -0.17100
C1152       C  0.59914181  0.18249823  0.33843451    -0.17100
C1153       C  0.60286531  0.32156801  0.33863569    -0.17100
C1154       C  0.64033567  0.31983923  0.41732125    -0.17100
H1155       H  0.59510299  0.11364314  0.40425447     0.15800
H1156       H  0.57456922  0.11418569  0.36167879     0.15800
H1157       H  0.60371934  0.38970198  0.40437477     0.15800
H1158       H  0.58278433  0.39066228  0.36199235     0.15800
H1159       H  0.67652877  0.21145042  0.45527156     0.14100
H1160       H  0.67877105  0.28708829  0.45539446     0.14100
H1161       H  0.60306489  0.21479435  0.29416386     0.14100
H1162       H  0.60510993  0.29019166  0.29429668     0.14100
H1163       H  0.63611361  0.21717771  0.37509648     0.27300
H1164       H  0.63834027  0.28465243  0.37515565     0.27300
N1165       N  0.82643361  0.45708570  0.47244450    -0.04900
N1166       N  0.84856847  0.42721612  0.46838422    -0.57100
N1167       N  0.79895763  0.04622096  0.46141322    -0.04600
N1168       N  0.80239778  0.07577667  0.44771917    -0.59200
N1169       N  0.82686912  0.04615042  0.47632633    -0.04200
N1170       N  0.85000854  0.07584614  0.47301804    -0.57000
N1171       N  0.79855528  0.45894979  0.45756253    -0.03900
N1172       N  0.80096563  0.43058760  0.44314152    -0.59500
C1173       C  0.83210417  0.41111613  0.45008699     0.97200
C1174       C  0.83413028  0.09401663  0.45518895     0.97000
N1175       N  0.68310844  0.04749498  0.47819593    -0.05100
N1176       N  0.65937545  0.07638956  0.47475598    -0.57600
N1177       N  0.70930396  0.45986663  0.45936908    -0.03200
N1178       N  0.70500954  0.43064989  0.44565795    -0.58900
N1179       N  0.68309025  0.45890372  0.47523185    -0.05100
N1180       N  0.66032555  0.42876582  0.47260427    -0.57900
N1181       N  0.70943215  0.04668324  0.46242973    -0.02900
N1182       N  0.70430606  0.07481978  0.44796006    -0.59000
Mn1183     Mn  0.75356654  0.00235597  0.46129887     1.18400
C1184       C  0.67324511  0.09310644  0.45591231     0.99300
C1185       C  0.67450464  0.41161303  0.45408874     1.00000
N1186       N  0.82934249  0.04492317  0.52922456    -0.05200
N1187       N  0.85219333  0.07501006  0.53181174    -0.61500
N1188       N  0.80285904  0.45507230  0.54132170    -0.04000
N1189       N  0.80779748  0.42637187  0.55541676    -0.62100
N1190       N  0.82926908  0.45480669  0.52557279    -0.04700
N1191       N  0.85291834  0.42573023  0.52871686    -0.61700
N1192       N  0.80308895  0.04415690  0.54505243    -0.03600
N1193       N  0.80740330  0.07342056  0.55870236    -0.62400
Mn1194     Mn  0.82915083  0.00099226  0.50254863     1.10700
C1195       C  0.83798674  0.09227850  0.55028063     1.00500
C1196       C  0.83880824  0.40826085  0.54728308     1.00600
N1197       N  0.68518593  0.45732997  0.52806457    -0.04700
N1198       N  0.66087293  0.42871411  0.53158625    -0.60100
N1199       N  0.71399517  0.04599638  0.54627232    -0.04000
N1200       N  0.71192576  0.07522698  0.56011945    -0.56800
N1201       N  0.68635772  0.04753487  0.53120740    -0.05300
N1202       N  0.66479732  0.07807493  0.53455194    -0.59600
N1203       N  0.71314896  0.45648102  0.54292076    -0.04300
N1204       N  0.70858123  0.42738875  0.55683182    -0.56800
Mn1205     Mn  0.68202600  0.00323614  0.50474820     1.20200
Mn1206     Mn  0.75751412  0.00088884  0.54615483     1.10100
Cl1207     Cl  0.75556900  0.00184287  0.50369419    -0.84800
C1208       C  0.67611904  0.41032139  0.54948060     0.97600
C1209       C  0.68130073  0.09491922  0.55259817     0.97400
N1210       N  0.89012784  0.31018715  0.62758369    -0.35400
N1211       N  0.88987118  0.25203466  0.66296644    -0.56000
N1212       N  0.87856197  0.19483408  0.62792611    -0.35400
N1213       N  0.87519728  0.25299774  0.59349414    -0.56000
C1214       C  0.89160718  0.33215772  0.64618327     0.28200
C1215       C  0.87929255  0.33306779  0.61031169     0.28200
C1216       C  0.87252958  0.17391995  0.64673494     0.28200
C1217       C  0.86449153  0.17430079  0.61050857     0.28200
C1218       C  0.90485936  0.28163704  0.67470030     0.36800
C1219       C  0.89705737  0.22002204  0.67507196     0.36800
C1220       C  0.87757876  0.28398035  0.57999926     0.36800
C1221       C  0.87399202  0.22209273  0.58001073     0.36800
C1222       C  0.88208493  0.36952339  0.64069494    -0.20700
C1223       C  0.87397129  0.37005404  0.61813119    -0.20700
C1224       C  0.85405733  0.13993902  0.64125495    -0.20700
C1225       C  0.84908624  0.14010463  0.61840915    -0.20700
C1226       C  0.92045563  0.26857118  0.69468653    -0.21800
C1227       C  0.91548212  0.22947322  0.69493607    -0.21800
C1228       C  0.87770732  0.27274319  0.55771835    -0.21800
C1229       C  0.87562179  0.23342140  0.55773091    -0.21800
C1230       C  0.90455592  0.32025142  0.66755167    -0.17100
C1231       C  0.87611082  0.32215889  0.58750973    -0.17100
C1232       C  0.86740141  0.18438232  0.58758381    -0.17100
C1233       C  0.88751978  0.18244193  0.66823982    -0.17100
H1234       H  0.88132195  0.39394235  0.65180012     0.15800
H1235       H  0.86586009  0.39508787  0.60851152     0.15800
H1236       H  0.84592677  0.11692915  0.65252373     0.15800
H1237       H  0.83610827  0.11731960  0.60870411     0.15800
H1238       H  0.93442315  0.28536048  0.70758379     0.14100
H1239       H  0.92502345  0.21021174  0.70804160     0.14100
H1240       H  0.87845002  0.29098784  0.54300952     0.14100
H1241       H  0.87416756  0.21536343  0.54304662     0.14100
H1242       H  0.90044524  0.28248502  0.62641590     0.27300
H1243       H  0.89622625  0.21880055  0.62674430     0.27300
N1244       N  0.63773403  0.19735193  0.63072433    -0.35400
N1245       N  0.64189805  0.25442891  0.59595397    -0.56000
N1246       N  0.62397822  0.31191930  0.62908968    -0.35400
N1247       N  0.62269067  0.25486607  0.66487907    -0.56000
C1248       C  0.65377525  0.17705354  0.61392263     0.28200
C1249       C  0.64359770  0.17750929  0.64990920     0.28200
C1250       C  0.63602748  0.33448272  0.61195354     0.28200
C1251       C  0.62174920  0.33420543  0.64750757     0.28200
C1252       C  0.64311979  0.22308689  0.58283988     0.36800
C1253       C  0.63813774  0.28482829  0.58214126     0.36800
C1254       C  0.61461550  0.22284669  0.67681881     0.36800
C1255       C  0.60558908  0.28414851  0.67565535     0.36800
C1256       C  0.67042428  0.14416396  0.62259572    -0.20700
C1257       C  0.66408335  0.14452061  0.64532950    -0.20700
C1258       C  0.64160914  0.37155743  0.61968950    -0.20700
C1259       C  0.63223710  0.37142385  0.64207350    -0.20700
C1260       C  0.64009164  0.23353957  0.56046538    -0.21800
C1261       C  0.63711779  0.27281326  0.56001521    -0.21800
C1262       C  0.59334330  0.23197364  0.69565238    -0.21800
C1263       C  0.58761590  0.27092172  0.69490842    -0.21800
C1264       C  0.65105899  0.18597958  0.59085436    -0.17100
C1265       C  0.62616616  0.18561780  0.67073235    -0.17100
C1266       C  0.60663006  0.32266603  0.66840563    -0.17100
C1267       C  0.63941347  0.32322491  0.58926766    -0.17100
H1268       H  0.68488943  0.12179506  0.61344162     0.15800
H1269       H  0.67240520  0.12234874  0.65707843     0.15800
H1270       H  0.65047463  0.39642590  0.61008910     0.15800
H1271       H  0.63255840  0.39603881  0.65303915     0.15800
H1272       H  0.64120564  0.21498135  0.54599781     0.14100
H1273       H  0.63525605  0.29054227  0.54513047     0.14100
H1274       H  0.58257254  0.21259153  0.70839682     0.14100
H1275       H  0.57174509  0.28752008  0.70700888     0.14100
H1276       H  0.61884788  0.22007828  0.62881542     0.27300
H1277       H  0.61300565  0.28432510  0.62778447     0.27300
N1278       N  0.96268828  0.42746861  0.27378673    -0.04900
N1279       N  0.95728597  0.39916070  0.28809704    -0.57100
N1280       N  0.93315224  0.45732073  0.22538019    -0.04600
N1281       N  0.90527909  0.45164418  0.21079489    -0.59200
N1282       N  0.96096038  0.43239169  0.22250638    -0.04200
N1283       N  0.95214831  0.40897767  0.20577203    -0.57000
N1284       N  0.93711522  0.45464671  0.27673378    -0.03900
N1285       N  0.91352766  0.44494562  0.29329018    -0.59500
C1286       C  0.92670174  0.41021359  0.30014100     0.97200
C1287       C  0.91732249  0.42160698  0.19865100     0.97000
N1288       N  0.96088651  0.06958608  0.21978951    -0.05100
N1289       N  0.95254044  0.09132981  0.20213593    -0.57600
N1290       N  0.93656918  0.04933082  0.27423295    -0.03200
N1291       N  0.91247920  0.05969868  0.29028574    -0.58900
N1292       N  0.96286664  0.07608821  0.27133515    -0.05100
N1293       N  0.95819996  0.10419929  0.28564603    -0.57900
N1294       N  0.93317051  0.04442184  0.22314353    -0.02900
N1295       N  0.90580556  0.04824932  0.20807117    -0.59000
Mn1296     Mn  0.93385570  0.50171613  0.25136427     1.18400
C1297       C  0.91799863  0.07745696  0.19509166     0.99300
C1298       C  0.92689494  0.09382184  0.29743382     1.00000
N1299       N  0.55540772  0.43254527  0.22354570    -0.05200
N1300       N  0.56614245  0.40805915  0.20786191    -0.61500
N1301       N  0.57641755  0.45518200  0.27753969    -0.04000
N1302       N  0.59980763  0.44514349  0.29415186    -0.62100
N1303       N  0.55019917  0.42833614  0.27455318    -0.04700
N1304       N  0.55456891  0.40034077  0.28911706    -0.61700
N1305       N  0.58207944  0.45901528  0.22620828    -0.03600
N1306       N  0.61049036  0.45400328  0.21202047    -0.62400
Mn1307     Mn  0.50709316  0.42927337  0.24781666     1.10700
C1308       C  0.60032205  0.42231008  0.20060667     1.00500
C1309       C  0.58542244  0.41090514  0.30129860     1.00600
N1310       N  0.55003858  0.07741612  0.27237998    -0.04700
N1311       N  0.55320324  0.10507333  0.28718879    -0.60100
N1312       N  0.58310340  0.04690572  0.22499027    -0.04000
N1313       N  0.61115589  0.05117198  0.21043826    -0.56800
N1314       N  0.55523817  0.07126592  0.22088651    -0.05300
N1315       N  0.56403580  0.09283320  0.20325081    -0.59600
N1316       N  0.57578237  0.05067049  0.27613022    -0.04300
N1317       N  0.59770826  0.06037173  0.29345887    -0.56800
Mn1318     Mn  0.50730016  0.07495296  0.24529933     1.20200
Mn1319     Mn  0.58033398  0.50272713  0.25241507     1.10100
Cl1320     Cl  0.50702444  0.50201359  0.24974736    -0.84800
C1321       C  0.58290456  0.09435592  0.30026120     0.97600
C1322       C  0.59914196  0.07985232  0.19705765     0.97400
N1323       N  0.96078575  0.16930297  0.96797201    -0.04900
N1324       N  0.93174752  0.14586934  0.96355815    -0.57100
N1325       N  0.54913576  0.20029486  0.95306345    -0.04600
N1326       N  0.57763655  0.19838342  0.93859310    -0.59200
N1327       N  0.55002032  0.17099009  0.96700659    -0.04200
N1328       N  0.57933653  0.14848500  0.96229597    -0.57000
N1329       N  0.96037163  0.19866908  0.95409140    -0.03900
N1330       N  0.93126284  0.19600702  0.94002392    -0.59500
C1331       C  0.91363649  0.16318833  0.94617224     0.97200
C1332       C  0.59620442  0.16612514  0.94460049     0.97000
N1333       N  0.54837014  0.31457473  0.97399680    -0.05100
N1334       N  0.57749767  0.33873243  0.97168682    -0.57600
N1335       N  0.95919046  0.28747353  0.95877533    -0.03200
N1336       N  0.92929588  0.29280299  0.94556259    -0.58900
N1337       N  0.95916295  0.31222419  0.97535961    -0.05100
N1338       N  0.92906958  0.33508746  0.97368506    -0.57900
N1339       N  0.54801586  0.28971825  0.95747629    -0.02900
N1340       N  0.57664818  0.29637838  0.94357050    -0.59000
Mn1341     Mn  0.50450960  0.24439165  0.95504178     1.18400
C1342       C  0.59469968  0.32682770  0.95265673     0.99300
C1343       C  0.91073541  0.32230774  0.95508364     1.00000
N1344       N  0.55189474  0.16312093  0.01974894    -0.05200
N1345       N  0.58145259  0.13964544  0.02178904    -0.61500
N1346       N  0.96394678  0.18676595  0.03735729    -0.04000
N1347       N  0.93461577  0.18144100  0.05095113    -0.62100
N1348       N  0.96273872  0.16215128  0.02071105    -0.04700
N1349       N  0.93233817  0.13947238  0.02266577    -0.61700
N1350       N  0.55208822  0.18814583  0.03617486    -0.03600
N1351       N  0.58147583  0.18241542  0.04967079    -0.62400
Mn1352     Mn  0.50633829  0.16500525  0.99372443     1.10700
C1353       C  0.59955098  0.15237063  0.04048231     1.00500
C1354       C  0.91527384  0.15202153  0.04160853     1.00600
N1355       N  0.96229445  0.30461720  0.02823807    -0.04700
N1356       N  0.93278784  0.32666349  0.03331014    -0.60100
N1357       N  0.55217441  0.27731083  0.04036270    -0.04000
N1358       N  0.58241906  0.27970161  0.05366336    -0.56800
N1359       N  0.55111228  0.30669233  0.02648404    -0.05300
N1360       N  0.58076698  0.32974152  0.03008911    -0.59600
N1361       N  0.96400584  0.27536493  0.04216235    -0.04300
N1362       N  0.93596746  0.27671965  0.05692381    -0.56800
Mn1363     Mn  0.50501567  0.31131701  0.00093306     1.20200
Mn1364     Mn  0.50806687  0.23197353  0.03957824     1.10100
Cl1365     Cl  0.50600833  0.23817707  0.99731537    -0.84800
C1366       C  0.91677591  0.30865201  0.05117736     0.97600
C1367       C  0.60002840  0.31231473  0.04698704     0.97400
N1368       N  0.69578396  0.38488287  0.87679037    -0.35400
N1369       N  0.75399787  0.36912492  0.91059303    -0.56000
N1370       N  0.81348043  0.38244231  0.87773604    -0.35400
N1371       N  0.75517167  0.39506106  0.84341993    -0.56000
C1372       C  0.67472579  0.36761030  0.89298411     0.28200
C1373       C  0.67521624  0.38293527  0.85753768     0.28200
C1374       C  0.83341793  0.36456550  0.89419919     0.28200
C1375       C  0.83424158  0.37946221  0.85867516     0.28200
C1376       C  0.72265479  0.36963442  0.92385509     0.36800
C1377       C  0.78480700  0.36838449  0.92437959     0.36800
C1378       C  0.72466473  0.40907690  0.83202039     0.36800
C1379       C  0.78681908  0.40762441  0.83248521     0.36800
C1380       C  0.64042468  0.35440673  0.88390691    -0.20700
C1381       C  0.64091268  0.36375444  0.86148988    -0.20700
C1382       C  0.86718036  0.34998955  0.88547756    -0.20700
C1383       C  0.86751768  0.35908461  0.86301548    -0.20700
C1384       C  0.73355134  0.36939379  0.94622886    -0.21800
C1385       C  0.77303565  0.36859931  0.94656016    -0.21800
C1386       C  0.73698572  0.43076095  0.81387201    -0.21800
C1387       C  0.77634517  0.42983699  0.81416189    -0.21800
C1388       C  0.68472371  0.36550000  0.91592434    -0.17100
C1389       C  0.68597453  0.40024927  0.83696610    -0.17100
C1390       C  0.82481509  0.39698974  0.83795001    -0.17100
C1391       C  0.82280068  0.36285233  0.91704641    -0.17100
H1392       H  0.61739573  0.33955945  0.89252455     0.15800
H1393       H  0.61844396  0.35722908  0.84952409     0.15800
H1394       H  0.88929466  0.33438065  0.89435709     0.15800
H1395       H  0.88988263  0.35165928  0.85127566     0.15800
H1396       H  0.71498810  0.36848851  0.96075222     0.14100
H1397       H  0.79094922  0.36697038  0.96138050     0.14100
H1398       H  0.71955327  0.44565527  0.80162904     0.14100
H1399       H  0.79501743  0.44389678  0.80217755     0.14100
H1400       H  0.72069347  0.40094497  0.87927820     0.27300
H1401       H  0.78933049  0.39946525  0.87987478     0.27300
N1402       N  0.75558468  0.13134223  0.89916588    -0.35400
N1403       N  0.81522635  0.12538860  0.86478331    -0.56000
N1404       N  0.75555723  0.11731995  0.83128634    -0.35400
N1405       N  0.69609059  0.12809877  0.86460308    -0.56000
C1406       C  0.78715118  0.14143093  0.91103339     0.28200
C1407       C  0.72453862  0.14284249  0.91090067     0.28200
C1408       C  0.78697162  0.12192913  0.81822024     0.28200
C1409       C  0.72443920  0.12350620  0.81817137     0.28200
C1410       C  0.83623341  0.12012425  0.88362418     0.36800
C1411       C  0.83644953  0.11192925  0.84757075     0.36800
C1412       C  0.67480590  0.12330779  0.88333144     0.36800
C1413       C  0.67449628  0.11508905  0.84734015     0.36800
C1414       C  0.77603450  0.15912098  0.93075866    -0.20700
C1415       C  0.73647302  0.16001409  0.93066918    -0.20700
C1416       C  0.77570011  0.13161913  0.79662260    -0.20700
C1417       C  0.73624145  0.13264641  0.79659479    -0.20700
C1418       C  0.87112503  0.10361432  0.87840165    -0.21800
C1419       C  0.87101253  0.09778333  0.85562883    -0.21800
C1420       C  0.63943834  0.10748877  0.87801002    -0.21800
C1421       C  0.63949455  0.10156427  0.85527002    -0.21800
C1422       C  0.82537572  0.13253287  0.90518357    -0.17100
C1423       C  0.68593066  0.13561244  0.90486596    -0.17100
C1424       C  0.68589959  0.11683087  0.82455930    -0.17100
C1425       C  0.82510856  0.11368889  0.82472216    -0.17100
H1426       H  0.79446430  0.16978084  0.94399456     0.15800
H1427       H  0.71855889  0.17146091  0.94381487     0.15800
H1428       H  0.79398781  0.13653567  0.78223548     0.15800
H1429       H  0.71825064  0.13846240  0.78217115     0.15800
H1430       H  0.89405723  0.09614042  0.88986002     0.14100
H1431       H  0.89380336  0.08437909  0.84627941     0.14100
H1432       H  0.61625679  0.10046293  0.88938808     0.14100
H1433       H  0.61637668  0.08844243  0.84587905     0.14100
H1434       H  0.75517290  0.11394965  0.88507614     0.27300
H1435       H  0.75518646  0.10507599  0.84719911     0.27300
N1436       N  0.57511616  0.45665288  0.72586225    -0.04900
N1437       N  0.59928725  0.42764348  0.72445724    -0.57100
N1438       N  0.55156632  0.04102899  0.69906915    -0.04600
N1439       N  0.55403912  0.06750624  0.68337481    -0.59200
N1440       N  0.57777362  0.04651551  0.71462484    -0.04200
N1441       N  0.59853054  0.07739356  0.70991713    -0.57000
N1442       N  0.54733784  0.45274713  0.71106409    -0.03900
N1443       N  0.55186274  0.42116960  0.69937470    -0.59500
C1444       C  0.58424246  0.40566125  0.70792486     0.97200
C1445       C  0.58321555  0.08998477  0.69032923     0.97000
N1446       N  0.93637104  0.04478903  0.71360235    -0.05100
N1447       N  0.91535605  0.07515898  0.70852990    -0.57600
N1448       N  0.95870223  0.45073738  0.71197351    -0.03200
N1449       N  0.95521143  0.41919565  0.70013944    -0.58900
N1450       N  0.93182087  0.45246965  0.72734431    -0.05100
N1451       N  0.90918159  0.42191305  0.72615073    -0.57900
N1452       N  0.96338535  0.04010158  0.69850823    -0.02900
N1453       N  0.96125926  0.06662557  0.68283958    -0.59000
Mn1454     Mn  0.50167453  0.49524315  0.70760560     1.18400
C1455       C  0.93141977  0.08829159  0.68924927     0.99300
C1456       C  0.92436950  0.40133164  0.70912183     1.00000
N1457       N  0.57805175  0.05781525  0.76702214    -0.05200
N1458       N  0.60612207  0.08233817  0.77106983    -0.61500
N1459       N  0.55078589  0.47146835  0.79415561    -0.04000
N1460       N  0.56073455  0.45199458  0.81222412    -0.62100
N1461       N  0.57747568  0.46877537  0.77864295    -0.04700
N1462       N  0.60601713  0.44727189  0.78597132    -0.61700
N1463       N  0.55069461  0.06153588  0.78201287    -0.03600
N1464       N  0.55968540  0.08885427  0.79637480    -0.62400
Mn1465     Mn  0.57648490  0.50650941  0.74875680     1.10700
C1466       C  0.59436363  0.10176270  0.78939533     1.00500
C1467       C  0.59499981  0.43666413  0.80688638     1.00600
N1468       N  0.93259227  0.46415304  0.77992278    -0.04700
N1469       N  0.90503381  0.44148412  0.78745679    -0.60100
N1470       N  0.96067942  0.05922778  0.78164277    -0.04000
N1471       N  0.95105971  0.08576991  0.79625043    -0.56800
N1472       N  0.93347400  0.05500172  0.76648731    -0.05300
N1473       N  0.90468036  0.07827414  0.77082007    -0.59600
N1474       N  0.95961543  0.46837097  0.79519428    -0.04300
N1475       N  0.95068782  0.44866599  0.81341807    -0.56800
Mn1476     Mn  0.93010372  0.50185600  0.75049785     1.20200
Mn1477     Mn  0.50424257  0.51349584  0.79165890     1.10100
Cl1478     Cl  0.50307874  0.50424804  0.74965281    -0.84800
C1479       C  0.91679269  0.43166448  0.80832343     0.97600
C1480       C  0.91610702  0.09763966  0.78934881     0.97400
N1481       N  0.75761924  0.10561617  0.15407038    -0.35400
N1482       N  0.81659168  0.10927758  0.11997683    -0.56000
N1483       N  0.75619981  0.11604733  0.08642494    -0.35400
N1484       N  0.69707312  0.10882835  0.12031507    -0.56000
C1485       C  0.78907202  0.09158358  0.16471558     0.28200
C1486       C  0.72621182  0.09191581  0.16492938     0.28200
C1487       C  0.78736409  0.11090961  0.07336665     0.28200
C1488       C  0.72479436  0.11003788  0.07354935     0.28200
C1489       C  0.83749748  0.11674317  0.13858886     0.36800
C1490       C  0.83617778  0.12432921  0.10252531     0.36800
C1491       C  0.67701771  0.11671522  0.13907997     0.36800
C1492       C  0.67658297  0.12278062  0.10290378     0.36800
C1493       C  0.77738895  0.06797195  0.18221919    -0.20700
C1494       C  0.73785572  0.06822124  0.18236707    -0.20700
C1495       C  0.77572445  0.10091496  0.05191264    -0.20700
C1496       C  0.73608092  0.10033782  0.05203064    -0.20700
C1497       C  0.87010183  0.13756055  0.13299162    -0.21800
C1498       C  0.86961097  0.14179375  0.11005096    -0.21800
C1499       C  0.64398050  0.13669431  0.13359165    -0.21800
C1500       C  0.64332838  0.13987765  0.11058638    -0.21800
C1501       C  0.82770629  0.10229307  0.15999986    -0.17100
C1502       C  0.68770907  0.10303708  0.16053340    -0.17100
C1503       C  0.68691799  0.11825674  0.08022036    -0.17100
C1504       C  0.82527216  0.11997873  0.07989079    -0.17100
H1505       H  0.79532979  0.05216450  0.19379177     0.15800
H1506       H  0.71983668  0.05270241  0.19408102     0.15800
H1507       H  0.79384481  0.09610917  0.03749121     0.15800
H1508       H  0.71770146  0.09503304  0.03770782     0.15800
H1509       H  0.89169450  0.14915310  0.14414454     0.14100
H1510       H  0.89115586  0.15640415  0.10009453     0.14100
H1511       H  0.62276257  0.14831170  0.14484344     0.14100
H1512       H  0.62125332  0.15368544  0.10069355     0.14100
H1513       H  0.75759302  0.12701771  0.14183365     0.27300
H1514       H  0.75636464  0.12855953  0.10221895     0.27300
N1515       N  0.75626860  0.38919459  0.15887439    -0.35400
N1516       N  0.81614472  0.36554413  0.12829233    -0.56000
N1517       N  0.75734618  0.34757891  0.09464416    -0.35400
N1518       N  0.69799483  0.37365623  0.12484630    -0.56000
C1519       C  0.78845810  0.40273274  0.16913181     0.28200
C1520       C  0.72590652  0.40904330  0.16696678     0.28200
C1521       C  0.78958802  0.34500624  0.08216995     0.28200
C1522       C  0.72717895  0.34852098  0.08033700     0.28200
C1523       C  0.83613664  0.36551480  0.14775151     0.36800
C1524       C  0.83639143  0.34430442  0.11366093     0.36800
C1525       C  0.67443497  0.38320757  0.14191559     0.36800
C1526       C  0.67538996  0.35977963  0.10824101     0.36800
C1527       C  0.77831786  0.43152317  0.18390333    -0.20700
C1528       C  0.73908925  0.43527931  0.18268302    -0.20700
C1529       C  0.77979722  0.34399830  0.05961461    -0.20700
C1530       C  0.74035142  0.34604465  0.05846850    -0.20700
C1531       C  0.86867243  0.34312005  0.14563526    -0.21800
C1532       C  0.86924114  0.33033804  0.12387360    -0.21800
C1533       C  0.63656991  0.37598132  0.13580041    -0.21800
C1534       C  0.63727422  0.36070366  0.11470788    -0.21800
C1535       C  0.82633229  0.38819325  0.16647123    -0.17100
C1536       C  0.68649482  0.40251572  0.16162118    -0.17100
C1537       C  0.68811787  0.34943435  0.08661817    -0.17100
C1538       C  0.82705592  0.34011757  0.09078656    -0.17100
H1539       H  0.79707563  0.44827575  0.19456330     0.15800
H1540       H  0.72242707  0.45516458  0.19246594     0.15800
H1541       H  0.79898621  0.34119663  0.04547514     0.15800
H1542       H  0.72329923  0.34547082  0.04327915     0.15800
H1543       H  0.88984759  0.33650541  0.15833802     0.14100
H1544       H  0.89115155  0.31260225  0.11644098     0.14100
H1545       H  0.61060321  0.38235939  0.14484364     0.14100
H1546       H  0.61231710  0.35273976  0.10490621     0.14100
H1547       H  0.75466539  0.36496876  0.14882183     0.27300
H1548       H  0.75582560  0.34439247  0.11193266     0.27300
C1549       C  0.62168523  0.11913352  0.80537350    -0.15200
C1550       C  0.65830742  0.10719174  0.80624541    -0.34000
H1551       H  0.61061082  0.13810442  0.81816790     0.13800
H1552       H  0.66879070  0.08836802  0.79317455     0.14400
C1553       C  0.85227076  0.10299704  0.80645995    -0.15200
C1554       C  0.88899007  0.11489282  0.80535322    -0.30400
H1555       H  0.84129910  0.08397512  0.79353736     0.13800
H1556       H  0.90039986  0.13406734  0.81803680     0.14400
C1557       C  0.62188359  0.42330758  0.82431376    -0.15200
C1558       C  0.65646359  0.40876767  0.81941029    -0.30400
H1559       H  0.61367146  0.42760342  0.84166878     0.13800
H1560       H  0.66451272  0.40588414  0.80191311     0.14400
C1561       C  0.85513487  0.40399040  0.82071662    -0.15200
C1562       C  0.89008931  0.41803836  0.82580471    -0.30400
H1563       H  0.84721134  0.40100191  0.80317630     0.13800
H1564       H  0.89827097  0.42246222  0.84317972     0.14400
C1565       C  0.65797987  0.12505511  0.06319578    -0.12100
C1566       C  0.63205901  0.13473216  0.05102738    -0.13600
C1567       C  0.88103192  0.13618813  0.05135046    -0.12100
C1568       C  0.85410552  0.12700324  0.06288889    -0.13600
C1569       C  0.63292277  0.32821123  0.05836911    -0.12100
C1570       C  0.65915549  0.33902187  0.07008642    -0.13600
C1571       C  0.88413939  0.32200252  0.06346818    -0.12100
C1572       C  0.85766054  0.33048091  0.07542248    -0.13600
C1573       C  0.62794205  0.34423922  0.94271356    -0.12100
C1574       C  0.65475265  0.35537277  0.93169370    -0.13600
C1575       C  0.85187911  0.35176024  0.93328995    -0.12100
C1576       C  0.87795930  0.34011669  0.94478316    -0.13600
C1577       C  0.62909646  0.15197621  0.93275747    -0.12100
C1578       C  0.65578304  0.14315573  0.92100163    -0.13600
C1579       C  0.88160333  0.14753382  0.93398096    -0.12100
C1580       C  0.85549297  0.13876903  0.92165026    -0.13600
C1581       C  0.89353013  0.40408432  0.18082218    -0.15200
C1582       C  0.85552513  0.39837025  0.18417515    -0.30400
H1583       H  0.90675560  0.39929988  0.16466715     0.13800
H1584       H  0.84460187  0.40420725  0.20085981     0.14400
C1585       C  0.65702119  0.42101785  0.17615910    -0.15200
C1586       C  0.62708069  0.40223610  0.18553021    -0.30400
H1587       H  0.66084852  0.45124048  0.17979710     0.13800
H1588       H  0.62264306  0.37191197  0.18248192     0.14400
C1589       C  0.89515488  0.09167137  0.17588670    -0.15200
C1590       C  0.85695867  0.09699380  0.17839010    -0.30400
H1591       H  0.90900198  0.09297876  0.15968562     0.13800
H1592       H  0.84586578  0.09465868  0.19535716     0.14400
C1593       C  0.62128450  0.09252919  0.17731216    -0.15200
C1594       C  0.65939571  0.09888006  0.17937210    -0.30400
H1595       H  0.60699792  0.09200819  0.16119090     0.13800
H1596       H  0.67119218  0.09813464  0.19625986     0.14400
C1597       C  0.61642627  0.15272086  0.68567633    -0.15200
C1598       C  0.59596845  0.12338213  0.67730372    -0.30400
H1599       H  0.62353704  0.15375574  0.70340397     0.13800
H1600       H  0.58639573  0.12465905  0.65995083     0.14400
C1601       C  0.58648749  0.35227574  0.68153563    -0.15200
C1602       C  0.60321749  0.37175366  0.69831266    -0.30400
H1603       H  0.55840157  0.36079428  0.67539984     0.13800
H1604       H  0.63169626  0.36392230  0.70412526     0.14400
C1605       C  0.89656111  0.14970097  0.68346656    -0.15200
C1606       C  0.91881926  0.12132128  0.67588227    -0.30400
H1607       H  0.88750171  0.15022083  0.70087358     0.13800
H1608       H  0.93009280  0.12318586  0.65892221     0.14400
C1609       C  0.92344369  0.34996474  0.68145963    -0.15200
C1610       C  0.90677014  0.36665942  0.69919505    -0.30400
H1611       H  0.95022061  0.36148102  0.67490729     0.13800
H1612       H  0.87933080  0.35626070  0.70540526     0.14400
C1613       C  0.86054353  0.15450787  0.57122950    -0.12100
C1614       C  0.85243839  0.12700214  0.55998806    -0.13600
C1615       C  0.86765180  0.35173310  0.57112221    -0.12100
C1616       C  0.85674695  0.37709581  0.55894183    -0.13600
C1617       C  0.66750853  0.12877493  0.56345976    -0.12100
C1618       C  0.65905162  0.15583630  0.57490824    -0.13600
C1619       C  0.64779699  0.35264649  0.57277250    -0.12100
C1620       C  0.65861517  0.37849885  0.56087668    -0.13600
C1621       C  0.58443945  0.15448567  0.32154497    -0.15200
C1622       C  0.59901391  0.11920279  0.31812849    -0.30400
H1623       H  0.56147870  0.16454039  0.31068736     0.13800
H1624       H  0.62305996  0.10908617  0.32809174     0.14400
C1625       C  0.58813584  0.35007304  0.32200493    -0.15200
C1626       C  0.60297416  0.38543027  0.31841921    -0.30400
H1627       H  0.56429451  0.34042548  0.31164762     0.13800
H1628       H  0.62783594  0.39525896  0.32782533     0.14400
C1629       C  0.64512149  0.15097380  0.43282791    -0.12100
C1630       C  0.65596069  0.12485812  0.44446338    -0.13600
C1631       C  0.64989672  0.34977079  0.43322719    -0.12100
C1632       C  0.65955892  0.37717834  0.44417761    -0.13600
C1633       C  0.92813274  0.15000265  0.32202614    -0.15200
C1634       C  0.90845195  0.11977249  0.31368297    -0.30400
H1635       H  0.95771822  0.15433682  0.31684688     0.13800
H1636       H  0.87874732  0.11470768  0.31835786     0.14400
C1637       C  0.91048282  0.38629919  0.31832733    -0.15200
C1638       C  0.90381549  0.34855538  0.31490691    -0.30400
H1639       H  0.90845153  0.39898622  0.33480975     0.13800
H1640       H  0.90710275  0.33819546  0.29787318     0.14400
C1641       C  0.86078361  0.15284184  0.43191761    -0.12100
C1642       C  0.85040690  0.12678947  0.44389792    -0.13600
C1643       C  0.85402508  0.35083804  0.42705835    -0.12100
C1644       C  0.84584617  0.37772557  0.43872118    -0.13600
N1645       N  0.89774137  0.75242139  0.34104427    -0.35400
N1646       N  0.88471297  0.81299469  0.37394565    -0.56000
N1647       N  0.87233396  0.75408416  0.40817714    -0.35400
N1648       N  0.88805729  0.69426661  0.37564304    -0.56000
C1649       C  0.90939978  0.78430968  0.32976619     0.28200
C1650       C  0.91420472  0.72169001  0.33104988     0.28200
C1651       C  0.87285776  0.78587228  0.42107263     0.28200
C1652       C  0.87393907  0.72341356  0.42205597     0.28200
C1653       C  0.88044701  0.83303426  0.35464481     0.36800
C1654       C  0.86771363  0.83370207  0.39022619     0.36800
C1655       C  0.89399462  0.67060883  0.35809076     0.36800
C1656       C  0.87774409  0.67188132  0.39320822     0.36800
C1657       C  0.93328944  0.77358708  0.31232203    -0.20700
C1658       C  0.93605505  0.73436959  0.31301347    -0.20700
C1659       C  0.87497102  0.77526592  0.44348243    -0.20700
C1660       C  0.87546732  0.73582408  0.44410254    -0.20700
C1661       C  0.85994622  0.86622195  0.35865123    -0.21800
C1662       C  0.85253167  0.86700187  0.38125673    -0.21800
C1663       C  0.88817179  0.63290520  0.36480263    -0.21800
C1664       C  0.87733226  0.63379457  0.38682345    -0.21800
C1665       C  0.89733725  0.82255395  0.33399371    -0.17100
C1666       C  0.90889289  0.68241749  0.33705554    -0.17100
C1667       C  0.87173850  0.68465278  0.41539689    -0.17100
C1668       C  0.86714056  0.82365755  0.41319533    -0.17100
H1669       H  0.94757049  0.79195389  0.30026648     0.15800
H1670       H  0.95244614  0.71736035  0.30137920     0.15800
H1671       H  0.87491995  0.79394180  0.45791791     0.15800
H1672       H  0.87631069  0.71827364  0.45909307     0.15800
H1673       H  0.85088604  0.88759063  0.34660966     0.14100
H1674       H  0.83713111  0.88920145  0.39002316     0.14100
H1675       H  0.89248069  0.60695309  0.35541360     0.14100
H1676       H  0.87146191  0.60893903  0.39717916     0.14100
H1677       H  0.87669649  0.75154087  0.35336661     0.27300
H1678       H  0.86625665  0.75327576  0.39115844     0.27300
N1679       N  0.62145328  0.69432480  0.37761769    -0.35400
N1680       N  0.63370376  0.75362901  0.41173983    -0.56000
N1681       N  0.62279642  0.81311709  0.37785165    -0.35400
N1682       N  0.60529244  0.75363081  0.34486031    -0.56000
C1683       C  0.62085474  0.67317682  0.39666071     0.28200
C1684       C  0.60550195  0.67270529  0.36119348     0.28200
C1685       C  0.62277585  0.83435072  0.39681862     0.28200
C1686       C  0.60717219  0.83483706  0.36133936     0.28200
C1687       C  0.64406832  0.72244015  0.42376307     0.36800
C1688       C  0.64426547  0.78444356  0.42401032     0.36800
C1689       C  0.60390202  0.72262758  0.33123865     0.36800
C1690       C  0.60417015  0.78495734  0.33138090     0.36800
C1691       C  0.60479061  0.63756979  0.39227959    -0.20700
C1692       C  0.59471172  0.63741285  0.36999299    -0.20700
C1693       C  0.60780317  0.87020925  0.39220471    -0.20700
C1694       C  0.59753996  0.87037670  0.36995415    -0.20700
C1695       C  0.66073187  0.73348543  0.44387877    -0.21800
C1696       C  0.66079517  0.77277430  0.44404964    -0.21800
C1697       C  0.60213146  0.73441474  0.30903834    -0.21800
C1698       C  0.60224755  0.77369296  0.30912761    -0.21800
C1699       C  0.63646766  0.68418690  0.41755111    -0.17100
C1700       C  0.60091192  0.68390241  0.33847347    -0.17100
C1701       C  0.60158993  0.82353553  0.33872251    -0.17100
C1702       C  0.63706093  0.82287820  0.41801260    -0.17100
H1703       H  0.60044539  0.61420517  0.40399852     0.15800
H1704       H  0.58071121  0.61393462  0.36142680     0.15800
H1705       H  0.60395090  0.89364489  0.40378621     0.15800
H1706       H  0.58394628  0.89400080  0.36134043     0.15800
H1707       H  0.67124657  0.71515555  0.45719293     0.14100
H1708       H  0.67143717  0.79068391  0.45748954     0.14100
H1709       H  0.60041188  0.71659526  0.29426456     0.14100
H1710       H  0.60067570  0.79188733  0.29442399     0.14100
H1711       H  0.63556539  0.72037845  0.37553835     0.27300
H1712       H  0.63577779  0.78665747  0.37585804     0.27300
N1713       N  0.82581615  0.95702049  0.47585676    -0.04900
N1714       N  0.84883118  0.92779514  0.47178823    -0.57100
N1715       N  0.80035552  0.54721829  0.45898746    -0.04600
N1716       N  0.80388509  0.57757806  0.44590631    -0.59200
N1717       N  0.82837790  0.54610581  0.47380934    -0.04200
N1718       N  0.85160951  0.57588131  0.47111730    -0.57000
N1719       N  0.79775023  0.95788953  0.46106563    -0.03900
N1720       N  0.80093281  0.92950226  0.44670198    -0.59500
C1721       C  0.83266363  0.91093676  0.45361877     0.97200
C1722       C  0.83576170  0.59517847  0.45372129     0.97000
N1723       N  0.68426590  0.54776623  0.47616393    -0.05100
N1724       N  0.66081767  0.57710821  0.47353376    -0.57600
N1725       N  0.70809979  0.95870883  0.46271808    -0.03200
N1726       N  0.70313393  0.92967037  0.44896285    -0.58900
N1727       N  0.68144896  0.95868427  0.47833336    -0.05100
N1728       N  0.65766958  0.92936068  0.47546902    -0.57900
N1729       N  0.71061454  0.54796620  0.46039640    -0.02900
N1730       N  0.70576155  0.57728424  0.44671904    -0.59000
Mn1731     Mn  0.75467417  0.50361718  0.45838660     1.18400
C1732       C  0.67486551  0.59519274  0.45518776     0.99300
C1733       C  0.67181384  0.91163602  0.45710665     1.00000
N1734       N  0.83115592  0.54343101  0.52632012    -0.05200
N1735       N  0.85462137  0.57297190  0.52897415    -0.61500
N1736       N  0.80137085  0.95610211  0.54450302    -0.04000
N1737       N  0.80569754  0.92668488  0.55818627    -0.62100
N1738       N  0.82787436  0.95595322  0.52879701    -0.04700
N1739       N  0.85084923  0.92623654  0.53149517    -0.61700
N1740       N  0.80486492  0.54300704  0.54212583    -0.03600
N1741       N  0.80980685  0.57207659  0.55586992    -0.62400
Mn1742     Mn  0.83043713  0.50018249  0.49948877     1.10700
C1743       C  0.84076530  0.59039762  0.54744382     1.00500
C1744       C  0.83641532  0.90832591  0.54981265     1.00600
N1745       N  0.68357709  0.95870914  0.53100806    -0.04700
N1746       N  0.65971900  0.92961998  0.53417261    -0.60100
N1747       N  0.71551768  0.54452821  0.54374700    -0.04000
N1748       N  0.71344823  0.57339473  0.55783477    -0.56800
N1749       N  0.68753915  0.54608560  0.52891338    -0.05300
N1750       N  0.66572063  0.57630079  0.53264614    -0.59600
N1751       N  0.71142176  0.95793497  0.54594009    -0.04300
N1752       N  0.70715237  0.92849157  0.55961332    -0.56800
Mn1753     Mn  0.68338818  0.50253475  0.50210392     1.20200
Mn1754     Mn  0.75913023  0.49967341  0.54319192     1.10100
Cl1755     Cl  0.75690567  0.50144158  0.50079771    -0.84800
C1756       C  0.67498790  0.91119273  0.55202816     0.97600
C1757       C  0.68248137  0.59292003  0.55068476     0.97400
N1758       N  0.89564608  0.80605751  0.62616479    -0.35400
N1759       N  0.91194947  0.74630028  0.65897481    -0.56000
N1760       N  0.89820369  0.68952984  0.62384513    -0.35400
N1761       N  0.87902961  0.74909784  0.59187206    -0.56000
C1762       C  0.89869294  0.82726007  0.64505529     0.28200
C1763       C  0.88052033  0.82872149  0.60996897     0.28200
C1764       C  0.90138351  0.66670295  0.64208854     0.28200
C1765       C  0.88277425  0.66812991  0.60721975     0.28200
C1766       C  0.92525612  0.77696227  0.67046225     0.36800
C1767       C  0.92656184  0.71492574  0.66917695     0.36800
C1768       C  0.87657200  0.78082118  0.57895634     0.36800
C1769       C  0.87750455  0.71883596  0.57786752     0.36800
C1770       C  0.88559432  0.86401182  0.64071875    -0.20700
C1771       C  0.87397046  0.86487115  0.61869163    -0.20700
C1772       C  0.88810217  0.63023229  0.63695787    -0.20700
C1773       C  0.87620535  0.63117272  0.61501981    -0.20700
C1774       C  0.94740946  0.76491853  0.68847748    -0.21800
C1775       C  0.94821285  0.72557812  0.68766510    -0.21800
C1776       C  0.87305851  0.77064877  0.55658361    -0.21800
C1777       C  0.87363506  0.73132625  0.55589934    -0.21800
C1778       C  0.91691249  0.81559769  0.66522104    -0.17100
C1779       C  0.87474840  0.81860775  0.58720591    -0.17100
C1780       C  0.87677993  0.68021075  0.58484027    -0.17100
C1781       C  0.91954543  0.67678516  0.66243494    -0.17100
H1782       H  0.88510741  0.88811921  0.65202623     0.15800
H1783       H  0.86275609  0.88966509  0.60998328     0.15800
H1784       H  0.88761250  0.60523429  0.64772876     0.15800
H1785       H  0.86471476  0.60708356  0.60577367     0.15800
H1786       H  0.96165306  0.78261027  0.70085037     0.14100
H1787       H  0.96317196  0.70697433  0.69927459     0.14100
H1788       H  0.86984996  0.78955546  0.54228689     0.14100
H1789       H  0.87095062  0.71393440  0.54099430     0.14100
H1790       H  0.90788224  0.77946599  0.62368601     0.27300
H1791       H  0.91065751  0.71639272  0.62205801     0.27300
N1792       N  0.63477633  0.69226682  0.62993383    -0.35400
N1793       N  0.64373611  0.75089177  0.59572619    -0.56000
N1794       N  0.62434483  0.80801447  0.62894158    -0.35400
N1795       N  0.61898500  0.74983283  0.66401228    -0.56000
C1796       C  0.65029247  0.67152163  0.61312483     0.28200
C1797       C  0.63736593  0.67102059  0.64891304     0.28200
C1798       C  0.63737364  0.83083661  0.61218022     0.28200
C1799       C  0.62139288  0.82996936  0.64747983     0.28200
C1800       C  0.64663150  0.71994916  0.58237547     0.36800
C1801       C  0.64263234  0.78178177  0.58207679     0.36800
C1802       C  0.60995987  0.71789469  0.67580691     0.36800
C1803       C  0.60239934  0.77943734  0.67479948     0.36800
C1804       C  0.66291276  0.63669683  0.62155629    -0.20700
C1805       C  0.65491973  0.63646243  0.64411257    -0.20700
C1806       C  0.64274204  0.86772946  0.62023995    -0.20700
C1807       C  0.63239583  0.86721771  0.64244426    -0.20700
C1808       C  0.64778600  0.73123261  0.56006098    -0.21800
C1809       C  0.64535044  0.77049654  0.55987714    -0.21800
C1810       C  0.58841140  0.72739093  0.69447897    -0.21800
C1811       C  0.58354589  0.76642451  0.69380409    -0.21800
C1812       C  0.65134058  0.68209961  0.59018745    -0.17100
C1813       C  0.62092822  0.68033446  0.66993194    -0.17100
C1814       C  0.60529257  0.81816513  0.66810108    -0.17100
C1815       C  0.64219459  0.82002690  0.58952531    -0.17100
H1816       H  0.67618552  0.61362419  0.61237991     0.15800
H1817       H  0.66072198  0.61312742  0.65560379     0.15800
H1818       H  0.65233213  0.89272007  0.61099119     0.15800
H1819       H  0.63245900  0.89168098  0.65351366     0.15800
H1820       H  0.65087488  0.71315824  0.54548577     0.14100
H1821       H  0.64607593  0.78867008  0.54513712     0.14100
H1822       H  0.57690435  0.70818184  0.70709472     0.14100
H1823       H  0.56789040  0.78327022  0.70588312     0.14100
H1824       H  0.61875471  0.71701791  0.62802072     0.27300
H1825       H  0.61325001  0.78056814  0.62720463     0.27300
N1826       N  0.96264470  0.92730796  0.27246247    -0.04900
N1827       N  0.95788803  0.89986990  0.28742463    -0.57100
N1828       N  0.93335181  0.95711391  0.22388765    -0.04600
N1829       N  0.90584471  0.95249302  0.20895758    -0.59200
N1830       N  0.96110944  0.93220448  0.22081654    -0.04200
N1831       N  0.95252935  0.90981090  0.20351926    -0.57000
N1832       N  0.93735700  0.95474713  0.27537127    -0.03900
N1833       N  0.91459037  0.94614652  0.29250206    -0.59500
C1834       C  0.92796340  0.91177180  0.29977604     0.97200
C1835       C  0.91784048  0.92302755  0.19637143     0.97000
N1836       N  0.96059561  0.57061890  0.22181462    -0.05100
N1837       N  0.95190978  0.59367575  0.20483608    -0.57600
N1838       N  0.93622664  0.54979461  0.27583797    -0.03200
N1839       N  0.91128261  0.56102268  0.29124689    -0.58900
N1840       N  0.96290455  0.57625885  0.27315162    -0.05100
N1841       N  0.95761141  0.60496650  0.28697670    -0.57900
N1842       N  0.93285285  0.54535654  0.22484541    -0.02900
N1843       N  0.90506190  0.55045708  0.21015041    -0.59000
Mn1844     Mn  0.93411674  0.00134906  0.24985943     1.18400
C1845       C  0.91719729  0.58047086  0.19776221     0.99300
C1846       C  0.92554675  0.59531585  0.29825621     1.00000
N1847       N  0.55616194  0.93337274  0.22215789    -0.05200
N1848       N  0.56677218  0.90995154  0.20586152    -0.61500
N1849       N  0.57631594  0.95602124  0.27656132    -0.04000
N1850       N  0.59920093  0.94637091  0.29348666    -0.62100
N1851       N  0.55040326  0.92897678  0.27336776    -0.04700
N1852       N  0.55439278  0.90125282  0.28815293    -0.61700
N1853       N  0.58281260  0.95974634  0.22524729    -0.03600
N1854       N  0.61104769  0.95573727  0.21084925    -0.62400
Mn1855     Mn  0.50756042  0.92969848  0.24643560     1.10700
C1856       C  0.60088686  0.92477972  0.19879334     1.00500
C1857       C  0.58476741  0.91216498  0.30064158     1.00600
N1858       N  0.55032608  0.57666669  0.27388352    -0.04700
N1859       N  0.55433364  0.60480554  0.28829725    -0.60100
N1860       N  0.58223582  0.54653357  0.22600307    -0.04000
N1861       N  0.61003780  0.55148488  0.21133918    -0.56800
N1862       N  0.55441174  0.57120934  0.22250671    -0.05300
N1863       N  0.56297603  0.59374535  0.20527082    -0.59600
N1864       N  0.57646354  0.55016987  0.27725732    -0.04300
N1865       N  0.59951645  0.56058807  0.29396123    -0.56800
Mn1866     Mn  0.50709422  0.57444033  0.24721199     1.20200
Mn1867     Mn  0.58052895  0.00334530  0.25143792     1.10100
Cl1868     Cl  0.50736278  0.00247194  0.24824134    -0.84800
C1869       C  0.58494999  0.59471800  0.30077688     0.97600
C1870       C  0.59778780  0.58087561  0.19855679     0.97400
N1871       N  0.96194097  0.67697918  0.97151153    -0.04900
N1872       N  0.93197701  0.65399400  0.96862023    -0.57100
N1873       N  0.55070448  0.70340495  0.95532838    -0.04600
N1874       N  0.57934550  0.69861814  0.94124558    -0.59200
N1875       N  0.55098621  0.67671163  0.97096608    -0.04200
N1876       N  0.58002918  0.65309264  0.96782754    -0.57000
N1877       N  0.96261551  0.70349477  0.95576541    -0.03900
N1878       N  0.93335721  0.69930614  0.94193925    -0.59500
C1879       C  0.91451868  0.66855846  0.95015944     0.97200
C1880       C  0.59733491  0.66737332  0.94928627     0.97000
N1881       N  0.55140911  0.82072807  0.96902733    -0.05100
N1882       N  0.58123196  0.84370751  0.96580469    -0.57600
N1883       N  0.96261210  0.79232303  0.95443940    -0.03200
N1884       N  0.93334339  0.79548024  0.94052427    -0.58900
N1885       N  0.96200321  0.81974586  0.96948132    -0.05100
N1886       N  0.93219598  0.84234713  0.96604058    -0.57900
N1887       N  0.55128195  0.79302588  0.95413339    -0.02900
N1888       N  0.58084110  0.79653248  0.94047159    -0.59000
Mn1889     Mn  0.50686707  0.74809624  0.95412261     1.18400
C1890       C  0.59923437  0.82806220  0.94800775     0.99300
C1891       C  0.91463949  0.82655768  0.94802302     1.00000
N1892       N  0.55254331  0.67872713  0.02374157    -0.05200
N1893       N  0.58192874  0.65552292  0.02718806    -0.61500
N1894       N  0.96468897  0.70596803  0.03972407    -0.04000
N1895       N  0.93585524  0.70276131  0.05390238    -0.62100
N1896       N  0.96328314  0.67855145  0.02467411    -0.04700
N1897       N  0.93326020  0.65597164  0.02836787    -0.61700
N1898       N  0.55298941  0.70661640  0.03851394    -0.03600
N1899       N  0.58243672  0.70307313  0.05227145    -0.62400
Mn1900     Mn  0.50709486  0.67611321  0.99764879     1.10700
C1901       C  0.60026717  0.67135101  0.04495165     1.00500
C1902       C  0.91655481  0.67163970  0.04662756     1.00600
N1903       N  0.96272056  0.82117482  0.02250218    -0.04700
N1904       N  0.93237210  0.84322487  0.02556332    -0.60100
N1905       N  0.55280009  0.79630442  0.03718941    -0.04000
N1906       N  0.58244285  0.80144045  0.05065291    -0.56800
N1907       N  0.55213428  0.82289050  0.02150789    -0.05300
N1908       N  0.58148343  0.84671031  0.02393528    -0.59600
N1909       N  0.96427950  0.79467991  0.03822555    -0.04300
N1910       N  0.93524938  0.79791562  0.05219339    -0.56800
Mn1911     Mn  0.50705524  0.82288082  0.99549945     1.20200
Mn1912     Mn  0.50887382  0.75109746  0.03895159     1.10100
Cl1913     Cl  0.50747352  0.74952361  0.99654315    -0.84800
C1914       C  0.91563303  0.82808586  0.04410685     0.97600
C1915       C  0.60006604  0.83272536  0.04210306     0.97400
N1916       N  0.69830529  0.88704294  0.87096651    -0.35400
N1917       N  0.75746538  0.87100982  0.90379281    -0.56000
N1918       N  0.81562292  0.88442249  0.87007608    -0.35400
N1919       N  0.75646603  0.89809927  0.83675015    -0.56000
C1920       C  0.67803371  0.86875925  0.88714643     0.28200
C1921       C  0.67736251  0.88499851  0.85186148     0.28200
C1922       C  0.83616368  0.86628866  0.88615057     0.28200
C1923       C  0.83577711  0.88203490  0.85077459     0.28200
C1924       C  0.72668756  0.87063616  0.91750217     0.36800
C1925       C  0.78883000  0.86974614  0.91708942     0.36800
C1926       C  0.72548931  0.91265051  0.82608107     0.36800
C1927       C  0.78761970  0.91127036  0.82558958     0.36800
C1928       C  0.64397106  0.85478395  0.87818755    -0.20700
C1929       C  0.64373217  0.86471875  0.85586272    -0.20700
C1930       C  0.86967407  0.85200592  0.87693113    -0.20700
C1931       C  0.86923747  0.86162330  0.85454326    -0.20700
C1932       C  0.73849245  0.86943380  0.93970315    -0.21800
C1933       C  0.77798803  0.86889577  0.93944504    -0.21800
C1934       C  0.73701312  0.93530714  0.80814755    -0.21800
C1935       C  0.77639893  0.93442714  0.80783370    -0.21800
C1936       C  0.68856469  0.86620221  0.90997980    -0.17100
C1937       C  0.68709499  0.90323333  0.83141972    -0.17100
C1938       C  0.82577322  0.90048425  0.83043357    -0.17100
C1939       C  0.82644488  0.86435470  0.90911075    -0.17100
H1940       H  0.62158529  0.83901849  0.88682379     0.15800
H1941       H  0.62122316  0.85786874  0.84398767     0.15800
H1942       H  0.89217390  0.83636766  0.88545394     0.15800
H1943       H  0.89128496  0.85466988  0.84249810     0.15800
H1944       H  0.72054013  0.86757111  0.95445953     0.14100
H1945       H  0.79651122  0.86654589  0.95397611     0.14100
H1946       H  0.71902747  0.95077211  0.79643474     0.14100
H1947       H  0.79458105  0.94910817  0.79584212     0.14100
H1948       H  0.72283988  0.90372262  0.87336725     0.27300
H1949       H  0.79162593  0.90146673  0.87268161     0.27300
N1950       N  0.75545494  0.63040093  0.90507921    -0.35400
N1951       N  0.81463675  0.62419199  0.87113613    -0.56000
N1952       N  0.75504976  0.61288630  0.83765446    -0.35400
N1953       N  0.69593328  0.62299969  0.87057709    -0.56000
C1954       C  0.78654824  0.64324304  0.91646871     0.28200
C1955       C  0.72400748  0.64236176  0.91620036     0.28200
C1956       C  0.78641953  0.61844911  0.82474003     0.28200
C1957       C  0.72394139  0.61822267  0.82439466     0.28200
C1958       C  0.83597176  0.62069420  0.88997344     0.36800
C1959       C  0.83598037  0.61014391  0.85419576     0.36800
C1960       C  0.67499989  0.61837632  0.88942218     0.36800
C1961       C  0.67443696  0.60905667  0.85352837     0.36800
C1962       C  0.77475529  0.66339886  0.93519220    -0.20700
C1963       C  0.73518605  0.66285198  0.93502335    -0.20700
C1964       C  0.77517593  0.62792393  0.80309941    -0.20700
C1965       C  0.73569992  0.62781649  0.80288708    -0.20700
C1966       C  0.87118102  0.60463088  0.88504430    -0.21800
C1967       C  0.87093442  0.59723961  0.86243185    -0.21800
C1968       C  0.63993668  0.60155936  0.88440278    -0.21800
C1969       C  0.63982336  0.59501803  0.86169650    -0.21800
C1970       C  0.82497364  0.63461867  0.91112630    -0.17100
C1971       C  0.68583110  0.63257662  0.91059469    -0.17100
C1972       C  0.68556250  0.61076359  0.83071922    -0.17100
C1973       C  0.82455758  0.61090799  0.83138476    -0.17100
H1974       H  0.79275570  0.67657782  0.94783800     0.15800
H1975       H  0.71678232  0.67552293  0.94753223     0.15800
H1976       H  0.79353420  0.63337314  0.78880543     0.15800
H1977       H  0.71771298  0.63321725  0.78840726     0.15800
H1978       H  0.89442306  0.59856536  0.89657765     0.14100
H1979       H  0.89398043  0.58384706  0.85329338     0.14100
H1980       H  0.61693140  0.59465218  0.89592498     0.14100
H1981       H  0.61680870  0.58141410  0.85244491     0.14100
H1982       H  0.75562090  0.61094973  0.89192098     0.27300
H1983       H  0.75498997  0.60060510  0.85357311     0.27300
N1984       N  0.57935186  0.95767550  0.72190586    -0.04900
N1985       N  0.60250795  0.92770406  0.72156077    -0.57100
N1986       N  0.54508785  0.53984514  0.70424892    -0.04600
N1987       N  0.54689526  0.56551153  0.68809331    -0.59200
N1988       N  0.57245166  0.54543622  0.71911803    -0.04200
N1989       N  0.59348369  0.57568265  0.71331735    -0.57000
N1990       N  0.55227418  0.95374945  0.70670935    -0.03900
N1991       N  0.55607628  0.92123940  0.69586509    -0.59500
C1992       C  0.58735730  0.90511760  0.70529964     0.97200
C1993       C  0.57690181  0.58775623  0.69389845     0.97000
N1994       N  0.93026265  0.54123296  0.72163799    -0.05100
N1995       N  0.90917399  0.57216359  0.71852121    -0.57600
N1996       N  0.96370041  0.95278206  0.70562758    -0.03200
N1997       N  0.96080655  0.92059076  0.69433626    -0.58900
N1998       N  0.93574983  0.95572429  0.72027418    -0.05100
N1999       N  0.91283268  0.92535713  0.71900893    -0.57900
N2000       N  0.95695046  0.53896852  0.70616129    -0.02900
N2001       N  0.95483315  0.56839607  0.69230499    -0.59000
Mn2002     Mn  0.50763769  0.99650245  0.70184253     1.18400
C2003       C  0.92490805  0.58876948  0.70018414     0.99300
C2004       C  0.92915803  0.90356787  0.70285448     1.00000
N2005       N  0.57583029  0.55497312  0.77225744    -0.05200
N2006       N  0.60451188  0.57862599  0.77671332    -0.61500
N2007       N  0.55180004  0.97505063  0.78946136    -0.04000
N2008       N  0.56109439  0.95541367  0.80763419    -0.62100
N2009       N  0.57870548  0.97158262  0.77415273    -0.04700
N2010       N  0.60653424  0.94939734  0.78156746    -0.61700
N2011       N  0.54905356  0.55784876  0.78769036    -0.03600
N2012       N  0.55895192  0.58386466  0.80265660    -0.62400
Mn2013     Mn  0.57972730  0.00838754  0.74425528     1.10700
C2014       C  0.59356302  0.59681675  0.79564649     1.00500
C2015       C  0.59510418  0.93920158  0.80242036     1.00600
N2016       N  0.93427501  0.96877917  0.77293703    -0.04700
N2017       N  0.90638532  0.94623018  0.78018674    -0.60100
N2018       N  0.95844308  0.55502197  0.78862924    -0.04000
N2019       N  0.94970396  0.58235905  0.80291328    -0.56800
N2020       N  0.93075058  0.55054599  0.77383742    -0.05300
N2021       N  0.90261263  0.57461510  0.77792689    -0.59600
N2022       N  0.96083530  0.97278103  0.78851736    -0.04300
N2023       N  0.95132986  0.95310842  0.80662609    -0.56800
Mn2024     Mn  0.93361440  0.00603276  0.74310829     1.20200
Mn2025     Mn  0.50548087  0.01762593  0.78574757     1.10100
Cl2026     Cl  0.50640321  0.00711202  0.74380713    -0.84800
C2027       C  0.91753442  0.93634456  0.80117005     0.97600
C2028       C  0.91481726  0.59452667  0.79606191     0.97400
N2029       N  0.75686452  0.61854690  0.15967621    -0.35400
N2030       N  0.81633462  0.62614736  0.12567391    -0.56000
N2031       N  0.75685683  0.63635725  0.09201022    -0.35400
N2032       N  0.69723319  0.62446888  0.12549551    -0.56000
C2033       C  0.78824752  0.60442213  0.17035975     0.28200
C2034       C  0.72535875  0.60478830  0.17043953     0.28200
C2035       C  0.78830835  0.63329016  0.07890154     0.28200
C2036       C  0.72568507  0.63151301  0.07875775     0.28200
C2037       C  0.83734775  0.63053416  0.14458060     0.36800
C2038       C  0.83687192  0.64219646  0.10886500     0.36800
C2039       C  0.67613198  0.62933817  0.14425278     0.36800
C2040       C  0.67635230  0.63883795  0.10833204     0.36800
C2041       C  0.77638177  0.58115685  0.18799043    -0.20700
C2042       C  0.73689343  0.58149034  0.18807921    -0.20700
C2043       C  0.77705210  0.62616312  0.05698950    -0.20700
C2044       C  0.73742961  0.62500802  0.05690016    -0.20700
C2045       C  0.87100389  0.65029399  0.13983088    -0.21800
C2046       C  0.87099492  0.65714109  0.11712170    -0.21800
C2047       C  0.64198885  0.64757397  0.13901974    -0.21800
C2048       C  0.64181978  0.65296927  0.11618891    -0.21800
C2049       C  0.82709818  0.61417113  0.16547538    -0.17100
C2050       C  0.68666875  0.61454955  0.16548592    -0.17100
C2051       C  0.68740640  0.63750785  0.08559810    -0.17100
C2052       C  0.82628304  0.64087792  0.08603074    -0.17100
H2053       H  0.79413788  0.56528559  0.19962538     0.15800
H2054       H  0.71885353  0.56591866  0.19975639     0.15800
H2055       H  0.79540986  0.62331403  0.04248333     0.15800
H2056       H  0.71933353  0.62118147  0.04229627     0.15800
H2057       H  0.89319406  0.65917120  0.15143875     0.14100
H2058       H  0.89341716  0.67163594  0.10778689     0.14100
H2059       H  0.61955566  0.65633993  0.15037558     0.14100
H2060       H  0.61910818  0.66621484  0.10653014     0.14100
H2061       H  0.75693055  0.63968941  0.14731299     0.27300
H2062       H  0.75658099  0.64651049  0.10836366     0.27300
N2063       N  0.75645838  0.89857034  0.15445168    -0.35400
N2064       N  0.81658221  0.88191455  0.12214342    -0.56000
N2065       N  0.75724862  0.86927477  0.08801705    -0.35400
N2066       N  0.69783225  0.88871548  0.11999297    -0.56000
C2067       C  0.78871913  0.91035819  0.16539881     0.28200
C2068       C  0.72599024  0.91643183  0.16395632     0.28200
C2069       C  0.78926346  0.86928083  0.07524204     0.28200
C2070       C  0.72684538  0.87235543  0.07402255     0.28200
C2071       C  0.83640935  0.87778232  0.14153613     0.36800
C2072       C  0.83639159  0.86289339  0.10626913     0.36800
C2073       C  0.67426997  0.89566752  0.13749003     0.36800
C2074       C  0.67516200  0.87820865  0.10261258     0.36800
C2075       C  0.77847255  0.93603098  0.18201161    -0.20700
C2076       C  0.73919426  0.93957059  0.18124528    -0.20700
C2077       C  0.77911030  0.87246070  0.05280829    -0.20700
C2078       C  0.73962504  0.87420596  0.05203511    -0.20700
C2079       C  0.86837059  0.85511442  0.13803434    -0.21800
C2080       C  0.86878684  0.84635247  0.11559005    -0.21800
C2081       C  0.63633337  0.89037947  0.13090365    -0.21800
C2082       C  0.63697221  0.87880260  0.10900834    -0.21800
C2083       C  0.82674562  0.89664906  0.16170549    -0.17100
C2084       C  0.68648464  0.91096083  0.15831768    -0.17100
C2085       C  0.68794713  0.87123413  0.08054667    -0.17100
C2086       C  0.82672947  0.86234809  0.08328029    -0.17100
H2087       H  0.79717268  0.95095043  0.19358917     0.15800
H2088       H  0.72253559  0.95735106  0.19233532     0.15800
H2089       H  0.79808556  0.87239027  0.03846298     0.15800
H2090       H  0.72227574  0.87617433  0.03699869     0.15800
H2091       H  0.88905737  0.84535472  0.15029856     0.14100
H2092       H  0.89014794  0.82927631  0.10715420     0.14100
H2093       H  0.61045338  0.89560748  0.14029905     0.14100
H2094       H  0.61196295  0.87310808  0.09872197     0.14100
H2095       H  0.75498830  0.87649091  0.14283062     0.27300
H2096       H  0.75603460  0.86270904  0.10499640     0.27300
C2097       C  0.62128835  0.61325953  0.81174259    -0.15200
C2098       C  0.65785971  0.60114916  0.81242445    -0.34000
H2099       H  0.61046357  0.63190843  0.82476894     0.13800
H2100       H  0.66820703  0.58265990  0.79915201     0.14400
C2101       C  0.85163382  0.59987237  0.81332500    -0.15200
C2102       C  0.88810615  0.61224397  0.81197698    -0.30400
H2103       H  0.84072848  0.58018433  0.80072431     0.13800
H2104       H  0.89950634  0.63206661  0.82431722     0.14400
C2105       C  0.62194384  0.92517822  0.81968990    -0.15200
C2106       C  0.65686507  0.91177225  0.81434338    -0.30400
H2107       H  0.61379057  0.92851288  0.83712526     0.13800
H2108       H  0.66468952  0.90993837  0.79675749     0.14400
C2109       C  0.85566197  0.90863277  0.81314597    -0.15200
C2110       C  0.89062314  0.92240122  0.81839559    -0.30400
H2111       H  0.84751702  0.90653517  0.79559556     0.13800
H2112       H  0.89885844  0.92606358  0.83582686     0.14400
C2113       C  0.65839290  0.64515868  0.06869807    -0.12100
C2114       C  0.63251287  0.65490327  0.05648873    -0.13600
C2115       C  0.88271598  0.65716304  0.05764959    -0.12100
C2116       C  0.85581631  0.64852362  0.06942317    -0.13600
C2117       C  0.63293498  0.85026293  0.05243709    -0.12100
C2118       C  0.65919506  0.86167895  0.06383906    -0.13600
C2119       C  0.88277516  0.84344304  0.05539333    -0.12100
C2120       C  0.85656514  0.85293493  0.06731290    -0.13600
C2121       C  0.63247204  0.84410397  0.93717742    -0.12100
C2122       C  0.65907976  0.85519381  0.92592287    -0.13600
C2123       C  0.85613822  0.85344725  0.92489294    -0.12100
C2124       C  0.88222439  0.84258717  0.93656114    -0.13600
C2125       C  0.62951847  0.65051466  0.93823083    -0.12100
C2126       C  0.65575395  0.64040694  0.92658838    -0.13600
C2127       C  0.88145047  0.65237605  0.93920289    -0.12100
C2128       C  0.85491484  0.64272319  0.92741728    -0.13600
C2129       C  0.89451006  0.90777118  0.17753643    -0.15200
C2130       C  0.85604633  0.90333655  0.18003879    -0.30400
H2131       H  0.90841546  0.90449803  0.16145192     0.13800
H2132       H  0.84486652  0.90740667  0.19684103     0.14400
C2133       C  0.65710234  0.92696922  0.17393800    -0.15200
C2134       C  0.62701969  0.90696421  0.18233931    -0.30400
H2135       H  0.66124301  0.95639180  0.17927293     0.13800
H2136       H  0.62214437  0.87739077  0.17752778     0.14400
C2137       C  0.89385195  0.59694683  0.17948044    -0.15200
C2138       C  0.85674961  0.60593474  0.18322080    -0.30400
H2139       H  0.90606283  0.59723347  0.16280326     0.13800
H2140       H  0.84683821  0.60426763  0.20045919     0.14400
C2141       C  0.62063755  0.59649368  0.17987618    -0.15200
C2142       C  0.65732953  0.60743417  0.18345581    -0.30400
H2143       H  0.60865824  0.59437850  0.16315231     0.13800
H2144       H  0.66737648  0.60780805  0.20072540     0.14400
C2145       C  0.61236579  0.64852661  0.68597916    -0.15200
C2146       C  0.58968179  0.61952503  0.67941727    -0.30400
H2147       H  0.62182300  0.65054728  0.70330054     0.13800
H2148       H  0.57800882  0.61999003  0.66249131     0.14400
C2149       C  0.58629947  0.84801835  0.68167479    -0.15200
C2150       C  0.60524453  0.86992828  0.69657657    -0.30400
H2151       H  0.55683752  0.85473526  0.67718607     0.13800
H2152       H  0.63470298  0.86337158  0.70111053     0.14400
C2153       C  0.93467277  0.64498425  0.67624829    -0.15200
C2154       C  0.91225622  0.62550219  0.69060154    -0.30400
H2155       H  0.96339153  0.63492733  0.67246316     0.13800
H2156       H  0.88366376  0.63579233  0.69447450     0.14400
C2157       C  0.93343494  0.84609287  0.67968135    -0.15200
C2158       C  0.91224719  0.86835536  0.69320036    -0.30400
H2159       H  0.96389899  0.85198374  0.67764442     0.13800
H2160       H  0.88203485  0.86204401  0.69587029     0.14400
C2161       C  0.86712699  0.65101298  0.56856488    -0.12100
C2162       C  0.85679730  0.62414035  0.55743647    -0.13600
C2163       C  0.86420868  0.84890061  0.57169619    -0.12100
C2164       C  0.85311423  0.87547388  0.56049542    -0.13600
C2165       C  0.66837886  0.62606131  0.56209148    -0.12100
C2166       C  0.65975005  0.65246029  0.57399568    -0.13600
C2167       C  0.64980862  0.85020407  0.57340654    -0.12100
C2168       C  0.65922953  0.87743231  0.56221966    -0.13600
C2169       C  0.58663702  0.65536829  0.32166985    -0.15200
C2170       C  0.60188557  0.62035407  0.31805754    -0.30400
H2171       H  0.56277380  0.66463869  0.31125144     0.13800
H2172       H  0.62668951  0.61087927  0.32759062     0.14400
C2173       C  0.58669476  0.85196223  0.32205879    -0.15200
C2174       C  0.60212357  0.88690812  0.31794239    -0.30400
H2175       H  0.56225245  0.84255732  0.31210965     0.13800
H2176       H  0.62743578  0.89652410  0.32700796     0.14400
C2177       C  0.64622546  0.65396685  0.43322542    -0.12100
C2178       C  0.65749317  0.62757999  0.44447602    -0.13600
C2179       C  0.64514123  0.85263837  0.43437192    -0.12100
C2180       C  0.65492549  0.87893332  0.44622001    -0.13600
C2181       C  0.92551200  0.65288062  0.32180925    -0.15200
C2182       C  0.90623526  0.62220474  0.31366574    -0.30400
H2183       H  0.95520719  0.65717517  0.31683290     0.13800
H2184       H  0.87640682  0.61718797  0.31807892     0.14400
C2185       C  0.91255127  0.88901020  0.31867029    -0.15200
C2186       C  0.90384288  0.85163552  0.31565957    -0.30400
H2187       H  0.91296230  0.90186960  0.33516415     0.13800
H2188       H  0.90471511  0.84101741  0.29856908     0.14400
C2189       C  0.86241697  0.65576522  0.43215420    -0.12100
C2190       C  0.85185622  0.62895759  0.44346041    -0.13600
C2191       C  0.85814337  0.85336299  0.42934191    -0.12100
C2192       C  0.84847818  0.87910622  0.44154480    -0.13600
loop_ 
_geom_bond_atom_site_label_1 
_geom_bond_atom_site_label_2 
_geom_bond_distance 
_geom_bond_site_symmetry_2 
_ccdc_geom_bond_type 
N1            C6   1.359       .  A
N1            C5   1.360       .  A
N1           H33   1.040       .  S
N2            C9   1.352       .  A
N2           C10   1.350       .  A
N3            C8   1.352       .  A
N3            C7   1.353       .  A
N3           H34   1.038       .  S
N4           C11   1.353       .  A
N4           C12   1.353       .  A
C5           C13   1.387       .  A
C5           C21   1.426       .  A
C6           C22   1.427       .  A
C6           C14   1.389       .  A
C7           C15   1.387       .  A
C7           C24   1.412       .  A
C8           C23   1.413       .  A
C8           C16   1.387       .  A
C9           C21   1.415       .  A
C9           C17   1.387       .  A
C10          C24   1.409       .  A
C10          C18   1.385       .  A
C11          C19   1.389       .  A
C11          C22   1.419       .  A
C12          C20   1.385       .  A
C12          C23   1.415       .  A
C13          C14   1.375       .  A
C13          H25   1.082       .  S
C14          H26   1.081       .  S
C15          C16   1.378       .  A
C15          H27   1.082       .  S
C16          H28   1.082       .  S
C17          C18   1.373       .  A
C17          H29   1.081       .  S
C18          H30   1.082       .  S
C19          C20   1.370       .  A
C19          H31   1.079       .  S
C20          H32   1.082       .  S
C21         C542   1.507       .  S
C22         C537   1.497       .  S
C23         C545   1.453       .  S
C24         C547   1.450       .  S
N35          C40   1.355       .  A
N35          C39   1.353       .  A
N35          H67   1.040       .  S
N36          C43   1.352       .  A
N36          C44   1.353       .  A
N37          C42   1.354       .  A
N37          C41   1.353       .  A
N37          H68   1.041       .  S
N38          C45   1.355       .  A
N38          C46   1.354       .  A
C39          C47   1.386       .  A
C39          C55   1.413       .  A
C40          C56   1.418       .  A
C40          C48   1.388       .  A
C41          C49   1.386       .  A
C41          C58   1.411       .  A
C42          C57   1.416       .  A
C42          C50   1.388       .  A
C43          C55   1.412       .  A
C43          C51   1.387       .  A
C44          C58   1.411       .  A
C44          C52   1.386       .  A
C45          C53   1.386       .  A
C45          C56   1.418       .  A
C46          C54   1.387       .  A
C46          C57   1.418       .  A
C47          C48   1.377       .  A
C47          H59   1.082       .  S
C48          H60   1.082       .  S
C49          C50   1.374       .  A
C49          H61   1.082       .  S
C50          H62   1.081       .  S
C51          C52   1.375       .  A
C51          H63   1.082       .  S
C52          H64   1.082       .  S
C53          C54   1.373       .  A
C53          H65   1.082       .  S
C54          H66   1.082       .  S
C55         C533   1.452       .  S
C56         C525   1.497       .  S
C57         C529   1.493       .  S
C58         C535   1.452       .  S
N69          N70   1.324       .  A
N69          N75   1.316       .  A
N69        Mn646   2.213       .  S
N70          C77   1.354       .  A
N71          N73   1.316       .  A
N71          N72   1.318       .  A
N71         Mn87   2.191       .  S
N72          C78   1.348       .  A
N73          N74   1.324       .  A
N73         Mn98   2.217       .  S
N74          C78   1.354       .  A
N75          N76   1.318       .  A
N75        Mn635   2.192       .  S
N76          C77   1.347       .  A
C77         C548   1.435       .  S
C78         C546   1.437       .  S
N79          N85   1.315       .  A
N79          N80   1.324       .  A
N79        Mn109   2.213       .  S
N80          C88   1.354       .  A
N81          N82   1.319       .  A
N81          N83   1.317       .  A
N81        Mn635   2.200       .  S
N82          C89   1.349       .  A
N83          N84   1.324       .  A
N83        Mn657   2.211       .  S
N84          C89   1.353       .  A
N85          N86   1.318       .  A
N85         Mn87   2.192       .  S
N86          C88   1.348       .  A
Mn87        N623   2.190   1_545  S
Mn87        N629   2.192   1_545  S
Mn87       Cl111   2.530       .  S
C88         C534   1.438       .  S
C89         C536   1.438       .  S
N90          N91   1.324       .  A
N90          N96   1.316       .  A
N90         Mn98   2.218       .  S
N91          C99   1.355       .  A
N92          N94   1.317       .  A
N92          N93   1.317       .  A
N92        Mn658   2.189       .  S
N93         C100   1.347       .  A
N94          N95   1.324       .  A
N94        Mn646   2.218       .  S
N95         C100   1.355       .  A
N96          N97   1.317       .  A
N96        Mn110   2.184       .  S
N97          C99   1.346       .  A
Mn98        N617   2.222   1_545  S
Mn98        N642   2.216   1_545  S
Mn98       Cl111   2.563       .  S
C99         C518   1.435       .  S
C100        C520   1.436       .  S
N101        N102   1.323       .  A
N101        N107   1.316       .  A
N101       Mn657   2.208       .  S
N102        C112   1.353       .  A
N103        N104   1.319       .  A
N103        N105   1.317       .  A
N103       Mn110   2.194       .  S
N104        C113   1.348       .  A
N105        N106   1.323       .  A
N105       Mn109   2.217       .  S
N106        C113   1.353       .  A
N107        N108   1.318       .  A
N107       Mn658   2.194       .  S
N108        C112   1.349       .  A
Mn109       N631   2.221   1_545  S
Mn109       N649   2.207   1_545  S
Mn109      Cl111   2.562       .  S
Mn110       N640   2.191   1_545  S
Mn110       N655   2.189   1_545  S
Mn110      Cl111   2.536       .  S
C112        C524   1.434       .  S
C113        C521   1.436       .  S
N114        C119   1.355       .  A
N114        C118   1.353       .  A
N114        H146   1.037       .  S
N115        C122   1.352       .  A
N115        C123   1.352       .  A
N116        C121   1.354       .  A
N116        C120   1.352       .  A
N116        H147   1.038       .  S
N117        C124   1.349       .  A
N117        C125   1.350       .  A
C118        C126   1.386       .  A
C118        C134   1.412       .  A
C119        C135   1.418       .  A
C119        C127   1.389       .  A
C120        C128   1.387       .  A
C120        C137   1.416       .  A
C121        C136   1.414       .  A
C121        C129   1.388       .  A
C122        C134   1.412       .  A
C122        C130   1.386       .  A
C123        C137   1.413       .  A
C123        C131   1.386       .  A
C124        C132   1.387       .  A
C124        C135   1.410       .  A
C125        C133   1.386       .  A
C125        C136   1.409       .  A
C126        C127   1.375       .  A
C126        H138   1.082       .  S
C127        H139   1.082       .  S
C128        C129   1.374       .  A
C128        H140   1.082       .  S
C129        H141   1.082       .  S
C130        C131   1.376       .  A
C130        H142   1.082       .  S
C131        H143   1.082       .  S
C132        C133   1.376       .  A
C132        H144   1.082       .  S
C133        H145   1.082       .  S
C134        C513   1.481       .  S
C135        C519   1.451       .  S
C136        C517   1.450       .  S
C137        C509   1.490       .  S
N148        C153   1.351       .  A
N148        C152   1.353       .  A
N148        H180   1.040       .  S
N149        C156   1.349       .  A
N149        C157   1.347       .  A
N150        C155   1.352       .  A
N150        C154   1.354       .  A
N150        H181   1.038       .  S
N151        C158   1.351       .  A
N151        C159   1.351       .  A
C152        C160   1.387       .  A
C152        C168   1.412       .  A
C153        C169   1.414       .  A
C153        C161   1.387       .  A
C154        C162   1.389       .  A
C154        C171   1.416       .  A
C155        C170   1.411       .  A
C155        C163   1.386       .  A
C156        C168   1.407       .  A
C156        C164   1.386       .  A
C157        C171   1.408       .  A
C157        C165   1.387       .  A
C158        C166   1.386       .  A
C158        C169   1.411       .  A
C159        C167   1.386       .  A
C159        C170   1.411       .  A
C160        C161   1.375       .  A
C160        H172   1.082       .  S
C161        H173   1.082       .  S
C162        C163   1.376       .  A
C162        H174   1.082       .  S
C163        H175   1.082       .  S
C164        C165   1.377       .  A
C164        H176   1.082       .  S
C165        H177   1.082       .  S
C166        C167   1.377       .  A
C166        H178   1.082       .  S
C167        H179   1.082       .  S
C168        C522   1.449       .  S
C169        C501   1.489       .  S
C170        C505   1.480       .  S
C171        C523   1.448       .  S
N182        N183   1.317       .  A
N182        N188   1.318       .  A
N182      Mn1307   2.193       .  S
N183        C190   1.346       .  A
N184        N186   1.318       .  A
N184        N185   1.317       .  A
N184       Mn200   2.198       .  S
N185        C191   1.347       .  A
N186        N187   1.327       .  A
N186      Mn1307   2.228       .  S
N187        C191   1.359       .  A
N188        N189   1.328       .  A
N188       Mn200   2.234       .  S
N189        C190   1.360       .  A
C190        C541   1.478       .  S
C191        C485   1.478       .  S
N192        N198   1.317       .  A
N192        N193   1.328       .  A
N192      Mn1318   2.234       .  S
N193        C201   1.361       .  A
N194        N195   1.328       .  A
N194        N196   1.316       .  A
N194       Mn748   2.229       .  S
N195        C202   1.361       .  A
N196        N197   1.316       .  A
N196      Mn1318   2.186       .  S
N197        C202   1.346       .  A
N198        N199   1.316       .  A
N198       Mn748   2.189       .  S
N199        C201   1.346       .  A
Mn200       N742   2.233       .  S
Mn200       N746   2.191       .  S
Mn200     Cl1320   2.559       .  S
C201        C493   1.478       .  S
C202        C538   1.481       .  S
N203        N204   1.326       .  A
N203        N209   1.317       .  A
N203       Mn211   2.225       .  S
N204        C212   1.359       .  A
N205        N207   1.317       .  A
N205        N206   1.328       .  A
N205       Mn223   2.232       .  S
N206        C213   1.361       .  A
N207        N208   1.314       .  A
N207       Mn211   2.188       .  S
N208        C213   1.347       .  A
N209        N210   1.317       .  A
N209       Mn223   2.193       .  S
N210        C212   1.348       .  A
Mn211      N1278   2.192   1_455  S
Mn211      N1282   2.230   1_455  S
Mn211      Cl224   2.542       .  S
C212        C490   1.478       .  S
C213        C530   1.483       .  S
N214        N215   1.317       .  A
N214        N220   1.317       .  A
N214       Mn222   2.198       .  S
N215        C225   1.348       .  A
N216        N217   1.316       .  A
N216        N218   1.316       .  A
N216       Mn771   2.187       .  S
N217        C226   1.346       .  A
N218        N219   1.327       .  A
N218       Mn222   2.224       .  S
N219        C226   1.359       .  A
N220        N221   1.328       .  A
N220       Mn771   2.230       .  S
N221        C225   1.361       .  A
Mn222      N1288   2.235   1_455  S
Mn222      N1292   2.186   1_455  S
Mn222      Cl772   2.536       .  S
Mn223       N764   2.191       .  S
Mn223       N768   2.232       .  S
Mn223      Cl224   2.561       .  S
Cl224     Mn1296   2.561   1_455  S
Cl224      Mn770   2.533       .  S
C225        C526   1.487       .  S
C226        C497   1.474       .  S
N227        N228   1.324       .  A
N227        N233   1.316       .  A
N227      Mn1352   2.218       .  S
N228        C235   1.355       .  A
N229        N231   1.317       .  A
N229        N230   1.319       .  A
N229       Mn245   2.200       .  S
N230        C236   1.349       .  A
N231        N232   1.323       .  A
N231       Mn256   2.214       .  S
N232        C236   1.354       .  A
N233        N234   1.318       .  A
N233      Mn1341   2.189       .  S
N234        C235   1.347       .  A
C235        C483   1.438       .  S
C236        C481   1.439       .  S
N237        N243   1.316       .  A
N237        N238   1.324       .  A
N237       Mn267   2.215   1_556  S
N238        C246   1.354       .  A
N239        N240   1.318       .  A
N239        N241   1.317       .  A
N239      Mn1341   2.191       .  S
N240        C247   1.347       .  A
N241        N242   1.325       .  A
N241      Mn1363   2.220   1_556  S
N242        C247   1.355       .  A
N243        N244   1.318       .  A
N243       Mn245   2.188       .  S
N244        C246   1.347       .  A
Mn245      N1329   2.188   1_455  S
Mn245      N1335   2.195   1_455  S
Mn245      Cl269   2.530       .  S
C246        C477   1.436       .  S
C247        C480   1.438       .  S
N248        N249   1.324       .  A
N248        N254   1.316       .  A
N248       Mn256   2.218   1_554  S
N249        C257   1.355       .  A
N250        N252   1.317       .  A
N250        N251   1.318       .  A
N250      Mn1364   2.195       .  S
N251        C258   1.348       .  A
N252        N253   1.324       .  A
N252      Mn1352   2.215   1_554  S
N253        C258   1.354       .  A
N254        N255   1.316       .  A
N254       Mn268   2.181       .  S
N255        C257   1.346       .  A
Mn256      N1323   2.217   1_455  S
Mn256      N1348   2.213   1_456  S
Mn256      Cl269   2.566       .  S
C257        C470   1.434       .  S
C258        C471   1.437       .  S
N259        N260   1.324       .  A
N259        N265   1.315       .  A
N259      Mn1363   2.216       .  S
N260        C270   1.355       .  A
N261        N262   1.319       .  A
N261        N263   1.316       .  A
N261       Mn268   2.198       .  S
N262        C271   1.349       .  A
N263        N264   1.323       .  A
N263       Mn267   2.213       .  S
N264        C271   1.353       .  A
N265        N266   1.317       .  A
N265      Mn1364   2.183       .  S
N266        C270   1.346       .  A
Mn267      N1337   2.217   1_454  S
Mn267      N1355   2.218   1_455  S
Mn267      Cl269   2.565   1_554  S
Mn268      N1346   2.194   1_455  S
Mn268      N1361   2.184   1_455  S
Mn268      Cl269   2.530   1_554  S
C270        C475   1.434       .  S
C271        C473   1.437       .  S
N272        C277   1.355       .  A
N272        C276   1.353       .  A
N272        H304   1.042       .  S
N273        C280   1.350       .  A
N273        C281   1.350       .  A
N274        C279   1.353       .  A
N274        C278   1.353       .  A
N274        H305   1.042       .  S
N275        C282   1.352       .  A
N275        C283   1.352       .  A
C276        C284   1.388       .  A
C276        C292   1.414       .  A
C277        C293   1.417       .  A
C277        C285   1.387       .  A
C278        C286   1.387       .  A
C278        C295   1.413       .  A
C279        C294   1.415       .  A
C279        C287   1.387       .  A
C280        C292   1.409       .  A
C280        C288   1.387       .  A
C281        C295   1.409       .  A
C281        C289   1.386       .  A
C282        C290   1.387       .  A
C282        C293   1.412       .  A
C283        C291   1.387       .  A
C283        C294   1.413       .  A
C284        C285   1.376       .  A
C284        H296   1.082       .  S
C285        H297   1.082       .  S
C286        C287   1.375       .  A
C286        H298   1.082       .  S
C287        H299   1.082       .  S
C288        C289   1.376       .  A
C288        H300   1.082       .  S
C289        H301   1.082       .  S
C290        C291   1.372       .  A
C290        H302   1.082       .  S
C291        H303   1.082       .  S
C292        C478   1.450       .  S
C293        C462   1.496       .  S
C294        C465   1.493       .  S
C295        C479   1.452       .  S
N306        C311   1.354       .  A
N306        C310   1.353       .  A
N306        H338   1.039       .  S
N307        C314   1.352       .  A
N307        C315   1.354       .  A
N308        C313   1.352       .  A
N308        C312   1.353       .  A
N308        H339   1.039       .  S
N309        C316   1.351       .  A
N309        C317   1.352       .  A
C310        C318   1.388       .  A
C310        C326   1.415       .  A
C311        C327   1.414       .  A
C311        C319   1.387       .  A
C312        C320   1.387       .  A
C312        C329   1.413       .  A
C313        C328   1.412       .  A
C313        C321   1.387       .  A
C314        C326   1.413       .  A
C314        C322   1.385       .  A
C315        C329   1.420       .  A
C315        C323   1.388       .  A
C316        C324   1.385       .  A
C316        C327   1.409       .  A
C317        C325   1.388       .  A
C317        C328   1.417       .  A
C318        C319   1.378       .  A
C318        H330   1.082       .  S
C319        H331   1.082       .  S
C320        C321   1.374       .  A
C320        H332   1.082       .  S
C321        H333   1.083       .  S
C322        C323   1.374       .  A
C322        H334   1.082       .  S
C323        H335   1.081       .  S
C324        C325   1.373       .  A
C324        H336   1.082       .  S
C325        H337   1.081       .  S
C326        C484   1.453       .  S
C327        C482   1.452       .  S
C328        C454   1.488       .  S
C329        C457   1.493       .  S
N340        N341   1.324       .  A
N340        N346   1.315       .  A
N340       Mn369   2.217       .  S
N341        C348   1.355       .  A
N342        N344   1.314       .  A
N342        N343   1.315       .  A
N342       Mn906   2.183   1_545  S
N343        C349   1.346       .  A
N344        N345   1.325       .  A
N344       Mn917   2.208       .  S
N345        C349   1.356       .  A
N346        N347   1.317       .  A
N346       Mn358   2.187       .  S
N347        C348   1.351       .  A
C348        C506   1.476       .  S
C349        C502   1.466       .  S
N350        N356   1.315       .  A
N350        N351   1.325       .  A
N350       Mn928   2.217       .  S
N351        C359   1.357       .  A
N352        N353   1.316       .  A
N352        N354   1.314       .  A
N352      Mn1454   2.184       .  S
N353        C360   1.350       .  A
N354        N355   1.326       .  A
N354       Mn380   2.216       .  S
N355        C360   1.357       .  A
N356        N357   1.315       .  A
N356      Mn2002   2.182   1_545  S
N357        C359   1.346       .  A
Mn358       N890   2.177       .  S
Mn358      N1448   2.184   1_455  S
Mn358      N2000   2.194   1_455  S
Mn358      Cl382   2.529       .  S
C359        C510   1.467       .  S
C360        C514   1.479       .  S
N361        N362   1.318       .  A
N361        N367   1.315       .  A
N361       Mn917   2.200       .  S
N362        C370   1.355       .  A
N363        N365   1.317       .  A
N363        N364   1.319       .  A
N363       Mn381   2.201       .  S
N364        C371   1.350       .  A
N365        N366   1.322       .  A
N365       Mn369   2.215       .  S
N366        C371   1.356       .  A
N367        N368   1.320       .  A
N367       Mn929   2.199       .  S
N368        C370   1.352       .  A
Mn369       N892   2.228       .  S
Mn369       N909   2.200       .  S
Mn369      Cl382   2.560       .  S
C370        C453   1.473       .  S
C371        C461   1.475       .  S
N372        N373   1.319       .  A
N372        N378   1.316       .  A
N372       Mn380   2.191       .  S
N373        C383   1.353       .  A
N374        N375   1.320       .  A
N374        N376   1.316       .  A
N374      Mn2025   2.201       .  S
N375        C384   1.351       .  A
N376        N377   1.322       .  A
N376       Mn928   2.215       .  S
N377        C384   1.357       .  A
N378        N379   1.321       .  A
N378      Mn1477   2.213       .  S
N379        C383   1.353       .  A
Mn380       N898   2.198       .  S
Mn380       N924   2.202       .  S
Mn380     Cl1478   2.559       .  S
Mn381       N915   2.206       .  S
Mn381      N2018   2.194   1_455  S
Mn381      N1474   2.215   1_455  S
Mn381      Cl382   2.528       .  S
Cl382     Mn1476   2.560   1_455  S
C383        C466   1.473       .  S
C384        C458   1.477       .  S
N385        C390   1.357       .  A
N385        C389   1.357       .  A
N385        H417   1.043       .  S
N386        C393   1.352       .  A
N386        C394   1.350       .  A
N387        C392   1.351       .  A
N387        C391   1.351       .  A
N387        H418   1.040       .  S
N388        C395   1.351       .  A
N388        C396   1.350       .  A
C389        C397   1.388       .  A
C389        C405   1.422       .  A
C390        C406   1.421       .  A
C390        C398   1.387       .  A
C391        C399   1.387       .  A
C391        C408   1.411       .  A
C392        C407   1.411       .  A
C392        C400   1.387       .  A
C393        C405   1.413       .  A
C393        C401   1.386       .  A
C394        C408   1.411       .  A
C394        C402   1.386       .  A
C395        C403   1.386       .  A
C395        C406   1.413       .  A
C396        C404   1.386       .  A
C396        C407   1.411       .  A
C397        C398   1.377       .  A
C397        H409   1.082       .  S
C398        H410   1.082       .  S
C399        C400   1.381       .  A
C399        H411   1.082       .  S
C400        H412   1.083       .  S
C401        C402   1.376       .  A
C401        H413   1.081       .  S
C402        H414   1.082       .  S
C403        C404   1.376       .  A
C403        H415   1.081       .  S
C404        H416   1.082       .  S
C405        C494   1.506       .  S
C406        C498   1.503       .  S
C407        C469   1.448       .  S
C408        C472   1.450       .  S
N419        C424   1.358       .  A
N419        C423   1.360       .  A
N419        H451   1.040       .  S
N420        C427   1.352       .  A
N420        C428   1.350       .  A
N421        C426   1.352       .  A
N421        C425   1.352       .  A
N421        H452   1.038       .  S
N422        C429   1.353       .  A
N422        C430   1.353       .  A
C423        C431   1.387       .  A
C423        C439   1.426       .  A
C424        C440   1.426       .  A
C424        C432   1.389       .  A
C425        C433   1.387       .  A
C425        C442   1.411       .  A
C426        C441   1.412       .  A
C426        C434   1.387       .  A
C427        C439   1.415       .  A
C427        C435   1.387       .  A
C428        C442   1.409       .  A
C428        C436   1.385       .  A
C429        C437   1.390       .  A
C429        C440   1.419       .  A
C430        C438   1.384       .  A
C430        C441   1.413       .  A
C431        C432   1.374       .  A
C431        H443   1.082       .  S
C432        H444   1.081       .  S
C433        C434   1.377       .  A
C433        H445   1.082       .  S
C434        H446   1.082       .  S
C435        C436   1.374       .  A
C435        H447   1.081       .  S
C436        H448   1.082       .  S
C437        C438   1.369       .  A
C437        H449   1.079       .  S
C438        H450   1.082       .  S
C439        C486   1.506       .  S
C440        C489   1.496       .  S
C441        C474   1.452       .  S
C442        C476   1.449       .  S
C453        C454   1.343       .  D
C453        H455   1.086       .  S
C454        H456   1.087       .  S
C457        C458   1.343       .  D
C457        H459   1.087       .  S
C458        H460   1.086       .  S
C461        C462   1.343       .  D
C461        H463   1.086       .  S
C462        H464   1.087       .  S
C465        C466   1.345       .  D
C465        H467   1.087       .  S
C466        H468   1.086       .  S
C469        C470   1.205       .  T
C471        C472   1.207       .  T
C473        C474   1.207       .  T
C475        C476   1.205       .  T
C477        C478   1.206       .  T
C479        C480   1.208       .  T
C481        C482   1.208       .  T
C483        C484   1.208       .  T
C485        C486   1.352       .  D
C485        H487   1.083       .  S
C486        H488   1.087       .  S
C489        C490   1.350       .  D
C489        H491   1.086       .  S
C490        H492   1.086       .  S
C493        C494   1.352       .  D
C493        H495   1.082       .  S
C494        H496   1.087       .  S
C497        C498   1.351       .  D
C497        H499   1.082       .  S
C498        H500   1.087       .  S
C501        C502   1.342       .  D
C501        H503   1.086       .  S
C502        H504   1.087       .  S
C505        C506   1.343       .  D
C505        H507   1.086       .  S
C506        H508   1.086       .  S
C509        C510   1.342       .  D
C509        H511   1.086       .  S
C510        H512   1.088       .  S
C513        C514   1.345       .  D
C513        H515   1.086       .  S
C514        H516   1.086       .  S
C517        C518   1.206       .  T
C519        C520   1.207       .  T
C521        C522   1.206       .  T
C523        C524   1.205       .  T
C525        C526   1.353       .  D
C525        H527   1.087       .  S
C526        H528   1.086       .  S
C529        C530   1.352       .  D
C529        H531   1.087       .  S
C530        H532   1.086       .  S
C533        C534   1.207       .  T
C535        C536   1.207       .  T
C537        C538   1.352       .  D
C537        H539   1.086       .  S
C538        H540   1.086       .  S
C541        C542   1.353       .  D
C541        H543   1.083       .  S
C542        H544   1.087       .  S
C545        C546   1.207       .  T
C547        C548   1.206       .  T
N549        C554   1.360       .  A
N549        C553   1.359       .  A
N549        H581   1.040       .  S
N550        C557   1.353       .  A
N550        C558   1.352       .  A
N551        C556   1.353       .  A
N551        C555   1.353       .  A
N551        H582   1.038       .  S
N552        C559   1.354       .  A
N552        C560   1.353       .  A
C553        C561   1.388       .  A
C553        C569   1.427       .  A
C554        C570   1.427       .  A
C554        C562   1.389       .  A
C555        C563   1.388       .  A
C555        C572   1.414       .  A
C556        C571   1.414       .  A
C556        C564   1.387       .  A
C557        C569   1.416       .  A
C557        C565   1.387       .  A
C558        C572   1.413       .  A
C558        C566   1.385       .  A
C559        C567   1.389       .  A
C559        C570   1.418       .  A
C560        C568   1.385       .  A
C560        C571   1.415       .  A
C561        C562   1.375       .  A
C561        H573   1.082       .  S
C562        H574   1.081       .  S
C563        C564   1.378       .  A
C563        H575   1.082       .  S
C564        H576   1.082       .  S
C565        C566   1.374       .  A
C565        H577   1.082       .  S
C566        H578   1.082       .  S
C567        C568   1.368       .  A
C567        H579   1.079       .  S
C568        H580   1.082       .  S
C569       C1090   1.506       .  S
C570       C1085   1.498       .  S
C571       C1093   1.455       .  S
C572       C1095   1.454       .  S
N583        C588   1.355       .  A
N583        C587   1.352       .  A
N583        H615   1.039       .  S
N584        C591   1.352       .  A
N584        C592   1.353       .  A
N585        C590   1.356       .  A
N585        C589   1.355       .  A
N585        H616   1.039       .  S
N586        C593   1.357       .  A
N586        C594   1.355       .  A
C587        C595   1.387       .  A
C587        C603   1.412       .  A
C588        C604   1.417       .  A
C588        C596   1.388       .  A
C589        C597   1.386       .  A
C589        C606   1.414       .  A
C590        C605   1.420       .  A
C590        C598   1.388       .  A
C591        C603   1.412       .  A
C591        C599   1.387       .  A
C592        C606   1.412       .  A
C592        C600   1.386       .  A
C593        C601   1.386       .  A
C593        C604   1.420       .  A
C594        C602   1.387       .  A
C594        C605   1.421       .  A
C595        C596   1.375       .  A
C595        H607   1.083       .  S
C596        H608   1.082       .  S
C597        C598   1.374       .  A
C597        H609   1.082       .  S
C598        H610   1.081       .  S
C599        C600   1.373       .  A
C599        H611   1.082       .  S
C600        H612   1.082       .  S
C601        C602   1.372       .  A
C601        H613   1.082       .  S
C602        H614   1.082       .  S
C603       C1081   1.448       .  S
C604       C1073   1.497       .  S
C605       C1077   1.496       .  S
C606       C1083   1.456       .  S
N617        N618   1.325       .  A
N617        N623   1.316       .  A
N618        C625   1.356       .  A
N619        N621   1.316       .  A
N619        N620   1.320       .  A
N619       Mn635   2.203       .  S
N620        C626   1.350       .  A
N621        N622   1.324       .  A
N621       Mn646   2.215       .  S
N622        C626   1.353       .  A
N623        N624   1.318       .  A
N624        C625   1.347       .  A
C625       C1096   1.440       .  S
C626       C1094   1.441       .  S
N627        N633   1.316       .  A
N627        N628   1.322       .  A
N627       Mn657   2.204       .  S
N628        C636   1.352       .  A
N629        N630   1.318       .  A
N629        N631   1.316       .  A
N630        C637   1.347       .  A
N631        N632   1.325       .  A
N632        C637   1.356       .  A
N633        N634   1.318       .  A
N633       Mn635   2.192       .  S
N634        C636   1.348       .  A
Mn635      Cl659   2.533       .  S
C636       C1082   1.433       .  S
C637       C1084   1.440       .  S
N638        N639   1.322       .  A
N638        N644   1.316       .  A
N638       Mn646   2.200       .  S
N639        C647   1.351       .  A
N640        N642   1.317       .  A
N640        N641   1.318       .  A
N641        C648   1.347       .  A
N642        N643   1.323       .  A
N643        C648   1.353       .  A
N644        N645   1.317       .  A
N644       Mn658   2.191       .  S
N645        C647   1.348       .  A
Mn646      Cl659   2.564       .  S
C647       C1066   1.429       .  S
C648       C1068   1.433       .  S
N649        N650   1.322       .  A
N649        N655   1.316       .  A
N650        C660   1.352       .  A
N651        N652   1.318       .  A
N651        N653   1.316       .  A
N651       Mn658   2.192       .  S
N652        C661   1.348       .  A
N653        N654   1.324       .  A
N653       Mn657   2.212       .  S
N654        C661   1.354       .  A
N655        N656   1.318       .  A
N656        C660   1.348       .  A
Mn657      Cl659   2.563       .  S
Mn658      Cl659   2.531       .  S
C660       C1072   1.433       .  S
C661       C1069   1.435       .  S
N662        C667   1.354       .  A
N662        C666   1.354       .  A
N662        H694   1.038       .  S
N663        C670   1.352       .  A
N663        C671   1.352       .  A
N664        C669   1.352       .  A
N664        C668   1.351       .  A
N664        H695   1.038       .  S
N665        C672   1.348       .  A
N665        C673   1.349       .  A
C666        C674   1.387       .  A
C666        C682   1.416       .  A
C667        C683   1.416       .  A
C667        C675   1.388       .  A
C668        C676   1.388       .  A
C668        C685   1.412       .  A
C669        C684   1.413       .  A
C669        C677   1.388       .  A
C670        C682   1.414       .  A
C670        C678   1.387       .  A
C671        C685   1.412       .  A
C671        C679   1.386       .  A
C672        C680   1.387       .  A
C672        C683   1.409       .  A
C673        C681   1.386       .  A
C673        C684   1.408       .  A
C674        C675   1.375       .  A
C674        H686   1.081       .  S
C675        H687   1.082       .  S
C676        C677   1.373       .  A
C676        H688   1.082       .  S
C677        H689   1.082       .  S
C678        C679   1.377       .  A
C678        H690   1.082       .  S
C679        H691   1.082       .  S
C680        C681   1.375       .  A
C680        H692   1.082       .  S
C681        H693   1.083       .  S
C682       C1061   1.486       .  S
C683       C1067   1.448       .  S
C684       C1065   1.445       .  S
C685       C1057   1.480       .  S
N696        C701   1.354       .  A
N696        C700   1.354       .  A
N696        H728   1.038       .  S
N697        C704   1.349       .  A
N697        C705   1.350       .  A
N698        C703   1.352       .  A
N698        C702   1.353       .  A
N698        H729   1.038       .  S
N699        C706   1.352       .  A
N699        C707   1.352       .  A
C700        C708   1.387       .  A
C700        C716   1.415       .  A
C701        C717   1.418       .  A
C701        C709   1.387       .  A
C702        C710   1.389       .  A
C702        C719   1.414       .  A
C703        C718   1.411       .  A
C703        C711   1.386       .  A
C704        C716   1.410       .  A
C704        C712   1.387       .  A
C705        C719   1.409       .  A
C705        C713   1.386       .  A
C706        C714   1.387       .  A
C706        C717   1.413       .  A
C707        C715   1.385       .  A
C707        C718   1.411       .  A
C708        C709   1.375       .  A
C708        H720   1.082       .  S
C709        H721   1.082       .  S
C710        C711   1.373       .  A
C710        H722   1.082       .  S
C711        H723   1.082       .  S
C712        C713   1.375       .  A
C712        H724   1.082       .  S
C713        H725   1.082       .  S
C714        C715   1.375       .  A
C714        H726   1.082       .  S
C715        H727   1.082       .  S
C716       C1070   1.450       .  S
C717       C1049   1.492       .  S
C718       C1053   1.480       .  S
C719       C1071   1.448       .  S
N730        N731   1.317       .  A
N730        N736   1.318       .  A
N730      Mn1855   2.196       .  S
N731        C738   1.346       .  A
N732        N734   1.318       .  A
N732        N733   1.317       .  A
N732       Mn748   2.197   1_565  S
N733        C739   1.346       .  A
N734        N735   1.329       .  A
N734      Mn1855   2.237       .  S
N735        C739   1.362       .  A
N736        N737   1.327       .  A
N736       Mn748   2.228   1_565  S
N737        C738   1.359       .  A
C738       C1089   1.477       .  S
C739       C1033   1.483       .  S
N740        N746   1.317       .  A
N740        N741   1.326       .  A
N740      Mn1866   2.223       .  S
N741        C749   1.358       .  A
N742        N743   1.328       .  A
N742        N744   1.317       .  A
N743        C750   1.362       .  A
N744        N745   1.315       .  A
N744      Mn1866   2.183       .  S
N745        C750   1.345       .  A
N746        N747   1.316       .  A
N747        C749   1.347       .  A
Mn748     Cl1868   2.555       .  S
C749       C1041   1.474       .  S
C750       C1086   1.482       .  S
N751        N752   1.328       .  A
N751        N757   1.318       .  A
N751       Mn759   2.233       .  S
N752        C760   1.361       .  A
N753        N755   1.318       .  A
N753        N754   1.328       .  A
N753       Mn771   2.230   1_565  S
N754        C761   1.361       .  A
N755        N756   1.315       .  A
N755       Mn759   2.195       .  S
N756        C761   1.348       .  A
N757        N758   1.316       .  A
N757       Mn771   2.190   1_565  S
N758        C760   1.347       .  A
Mn759      N1826   2.197   1_455  S
Mn759      N1830   2.243   1_455  S
Mn759      Cl772   2.545   1_565  S
C760       C1038   1.483       .  S
C761       C1078   1.485       .  S
N762        N763   1.315       .  A
N762        N768   1.316       .  A
N762       Mn770   2.192       .  S
N763        C773   1.347       .  A
N764        N765   1.317       .  A
N764        N766   1.316       .  A
N765        C774   1.347       .  A
N766        N767   1.326       .  A
N766       Mn770   2.222       .  S
N767        C774   1.358       .  A
N768        N769   1.329       .  A
N769        C773   1.362       .  A
Mn770      N1836   2.227   1_455  S
Mn770      N1840   2.186   1_455  S
Mn771      Cl772   2.556       .  S
Cl772     Mn1844   2.556   1_455  S
C773       C1074   1.487       .  S
C774       C1045   1.475       .  S
N775        N776   1.325       .  A
N775        N781   1.317       .  A
N775      Mn1900   2.222       .  S
N776        C783   1.355       .  A
N777        N779   1.316       .  A
N777        N778   1.317       .  A
N777       Mn793   2.189       .  S
N778        C784   1.347       .  A
N779        N780   1.323       .  A
N779       Mn804   2.209       .  S
N780        C784   1.353       .  A
N781        N782   1.318       .  A
N781      Mn1889   2.193       .  S
N782        C783   1.347       .  A
C783       C1031   1.439       .  S
C784       C1029   1.432       .  S
N785        N791   1.316       .  A
N785        N786   1.323       .  A
N785       Mn815   2.213       .  S
N786        C794   1.353       .  A
N787        N788   1.318       .  A
N787        N789   1.316       .  A
N787      Mn1889   2.193       .  S
N788        C795   1.348       .  A
N789        N790   1.323       .  A
N789      Mn1911   2.207       .  S
N790        C795   1.353       .  A
N791        N792   1.319       .  A
N791       Mn793   2.196       .  S
N792        C794   1.349       .  A
Mn793      N1877   2.188   1_455  S
Mn793      N1883   2.189   1_455  S
Mn793      Cl817   2.530       .  S
C794       C1025   1.436       .  S
C795       C1028   1.434       .  S
N796        N797   1.324       .  A
N796        N802   1.316       .  A
N796       Mn804   2.219   1_554  S
N797        C805   1.354       .  A
N798        N800   1.316       .  A
N798        N799   1.318       .  A
N798      Mn1912   2.190       .  S
N799        C806   1.347       .  A
N800        N801   1.324       .  A
N800      Mn1900   2.214   1_554  S
N801        C806   1.354       .  A
N802        N803   1.318       .  A
N802       Mn816   2.191       .  S
N803        C805   1.348       .  A
Mn804      N1871   2.221   1_455  S
Mn804      N1896   2.216   1_456  S
Mn804      Cl817   2.564       .  S
C805       C1018   1.437       .  S
C806       C1019   1.436       .  S
N807        N808   1.325       .  A
N807        N813   1.316       .  A
N807      Mn1911   2.221   1_554  S
N808        C818   1.356       .  A
N809        N810   1.319       .  A
N809        N811   1.316       .  A
N809       Mn816   2.200       .  S
N810        C819   1.350       .  A
N811        N812   1.323       .  A
N811       Mn815   2.206   1_554  S
N812        C819   1.352       .  A
N813        N814   1.317       .  A
N813      Mn1912   2.186       .  S
N814        C818   1.346       .  A
Mn815      N1885   2.209   1_455  S
Mn815      N1903   2.219   1_456  S
Mn815      Cl817   2.564       .  S
Mn816      N1894   2.194   1_455  S
Mn816      N1909   2.187   1_455  S
Mn816      Cl817   2.530   1_554  S
C818       C1023   1.438       .  S
C819       C1021   1.437       .  S
N820        C825   1.354       .  A
N820        C824   1.354       .  A
N820        H852   1.041       .  S
N821        C828   1.350       .  A
N821        C829   1.350       .  A
N822        C827   1.354       .  A
N822        C826   1.353       .  A
N822        H853   1.041       .  S
N823        C830   1.352       .  A
N823        C831   1.352       .  A
C824        C832   1.387       .  A
C824        C840   1.412       .  A
C825        C841   1.415       .  A
C825        C833   1.387       .  A
C826        C834   1.388       .  A
C826        C843   1.413       .  A
C827        C842   1.416       .  A
C827        C835   1.387       .  A
C828        C840   1.408       .  A
C828        C836   1.386       .  A
C829        C843   1.410       .  A
C829        C837   1.387       .  A
C830        C838   1.387       .  A
C830        C841   1.412       .  A
C831        C839   1.387       .  A
C831        C842   1.413       .  A
C832        C833   1.374       .  A
C832        H844   1.082       .  S
C833        H845   1.082       .  S
C834        C835   1.375       .  A
C834        H846   1.082       .  S
C835        H847   1.082       .  S
C836        C837   1.376       .  A
C836        H848   1.082       .  S
C837        H849   1.082       .  S
C838        C839   1.372       .  A
C838        H850   1.082       .  S
C839        H851   1.082       .  S
C840       C1026   1.450       .  S
C841       C1010   1.494       .  S
C842       C1013   1.494       .  S
C843       C1027   1.449       .  S
N854        C859   1.351       .  A
N854        C858   1.354       .  A
N854        H886   1.040       .  S
N855        C862   1.351       .  A
N855        C863   1.351       .  A
N856        C861   1.353       .  A
N856        C860   1.351       .  A
N856        H887   1.040       .  S
N857        C864   1.350       .  A
N857        C865   1.352       .  A
C858        C866   1.387       .  A
C858        C874   1.412       .  A
C859        C875   1.412       .  A
C859        C867   1.388       .  A
C860        C868   1.387       .  A
C860        C877   1.412       .  A
C861        C876   1.412       .  A
C861        C869   1.387       .  A
C862        C874   1.409       .  A
C862        C870   1.384       .  A
C863        C877   1.416       .  A
C863        C871   1.388       .  A
C864        C872   1.385       .  A
C864        C875   1.409       .  A
C865        C873   1.388       .  A
C865        C876   1.416       .  A
C866        C867   1.378       .  A
C866        H878   1.082       .  S
C867        H879   1.082       .  S
C868        C869   1.374       .  A
C868        H880   1.082       .  S
C869        H881   1.082       .  S
C870        C871   1.374       .  A
C870        H882   1.082       .  S
C871        H883   1.081       .  S
C872        C873   1.374       .  A
C872        H884   1.082       .  S
C873        H885   1.081       .  S
C874       C1032   1.453       .  S
C875       C1030   1.446       .  S
C876       C1002   1.491       .  S
C877       C1005   1.486       .  S
N888        N889   1.324       .  A
N888        N894   1.314       .  A
N888       Mn917   2.217   1_565  S
N889        C896   1.356       .  A
N890        N892   1.315       .  A
N890        N891   1.315       .  A
N891        C897   1.345       .  A
N892        N893   1.327       .  A
N893        C897   1.359       .  A
N894        N895   1.317       .  A
N894       Mn906   2.179       .  S
N895        C896   1.350       .  A
C896       C1054   1.475       .  S
C897       C1050   1.470       .  S
N898        N904   1.315       .  A
N898        N899   1.322       .  A
N899        C907   1.352       .  A
N900        N901   1.316       .  A
N900        N902   1.314       .  A
N900      Mn2002   2.174       .  S
N901        C908   1.348       .  A
N902        N903   1.327       .  A
N902       Mn928   2.233   1_565  S
N903        C908   1.359       .  A
N904        N905   1.319       .  A
N904      Mn1454   2.198       .  S
N905        C907   1.352       .  A
Mn906      N1996   2.177   1_455  S
Mn906      N1452   2.183   1_465  S
Mn906      Cl930   2.531   1_565  S
C907       C1058   1.473       .  S
C908       C1062   1.480       .  S
N909        N910   1.320       .  A
N909        N915   1.316       .  A
N910        C918   1.354       .  A
N911        N913   1.316       .  A
N911        N912   1.320       .  A
N911       Mn929   2.209   1_565  S
N912        C919   1.353       .  A
N913        N914   1.319       .  A
N913       Mn917   2.194   1_565  S
N914        C919   1.353       .  A
N915        N916   1.320       .  A
N916        C918   1.352       .  A
Mn917      Cl930   2.554       .  S
C918       C1001   1.474       .  S
C919       C1009   1.472       .  S
N920        N921   1.320       .  A
N920        N926   1.317       .  A
N920       Mn928   2.202   1_565  S
N921        C931   1.354       .  A
N922        N923   1.320       .  A
N922        N924   1.315       .  A
N922      Mn1477   2.193       .  S
N923        C932   1.351       .  A
N924        N925   1.318       .  A
N925        C932   1.355       .  A
N926        N927   1.320       .  A
N926      Mn2025   2.210   1_565  S
N927        C931   1.352       .  A
Mn928     Cl2026   2.559       .  S
Mn929      N1470   2.200   1_455  S
Mn929      N2022   2.206   1_445  S
Mn929      Cl930   2.529       .  S
Cl930     Mn2024   2.558   1_455  S
C931       C1014   1.473       .  S
C932       C1006   1.471       .  S
N933        C938   1.358       .  A
N933        C937   1.358       .  A
N933        H965   1.042       .  S
N934        C941   1.352       .  A
N934        C942   1.351       .  A
N935        C940   1.352       .  A
N935        C939   1.352       .  A
N935        H966   1.040       .  S
N936        C943   1.352       .  A
N936        C944   1.351       .  A
C937        C945   1.388       .  A
C937        C953   1.422       .  A
C938        C954   1.422       .  A
C938        C946   1.388       .  A
C939        C947   1.387       .  A
C939        C956   1.412       .  A
C940        C955   1.412       .  A
C940        C948   1.387       .  A
C941        C953   1.414       .  A
C941        C949   1.386       .  A
C942        C956   1.411       .  A
C942        C950   1.386       .  A
C943        C951   1.386       .  A
C943        C954   1.415       .  A
C944        C952   1.386       .  A
C944        C955   1.412       .  A
C945        C946   1.376       .  A
C945        H957   1.082       .  S
C946        H958   1.082       .  S
C947        C948   1.380       .  A
C947        H959   1.082       .  S
C948        H960   1.082       .  S
C949        C950   1.374       .  A
C949        H961   1.082       .  S
C950        H962   1.082       .  S
C951        C952   1.375       .  A
C951        H963   1.081       .  S
C952        H964   1.082       .  S
C953       C1042   1.503       .  S
C954       C1046   1.504       .  S
C955       C1017   1.451       .  S
C956       C1020   1.450       .  S
N967        C972   1.360       .  A
N967        C971   1.360       .  A
N967        H999   1.040       .  S
N968        C975   1.354       .  A
N968        C976   1.352       .  A
N969        C974   1.352       .  A
N969        C973   1.352       .  A
N969       H1000   1.038       .  S
N970        C977   1.353       .  A
N970        C978   1.353       .  A
C971        C979   1.388       .  A
C971        C987   1.428       .  A
C972        C988   1.427       .  A
C972        C980   1.389       .  A
C973        C981   1.388       .  A
C973        C990   1.412       .  A
C974        C989   1.412       .  A
C974        C982   1.387       .  A
C975        C987   1.417       .  A
C975        C983   1.386       .  A
C976        C990   1.412       .  A
C976        C984   1.385       .  A
C977        C985   1.389       .  A
C977        C988   1.418       .  A
C978        C986   1.385       .  A
C978        C989   1.414       .  A
C979        C980   1.375       .  A
C979        H991   1.082       .  S
C980        H992   1.081       .  S
C981        C982   1.378       .  A
C981        H993   1.082       .  S
C982        H994   1.083       .  S
C983        C984   1.375       .  A
C983        H995   1.081       .  S
C984        H996   1.082       .  S
C985        C986   1.370       .  A
C985        H997   1.079       .  S
C986        H998   1.082       .  S
C987       C1034   1.511       .  S
C988       C1037   1.498       .  S
C989       C1022   1.452       .  S
C990       C1024   1.452       .  S
C1001      C1002   1.344       .  D
C1001      H1003   1.086       .  S
C1002      H1004   1.087       .  S
C1005      C1006   1.342       .  D
C1005      H1007   1.087       .  S
C1006      H1008   1.086       .  S
C1009      C1010   1.345       .  D
C1009      H1011   1.086       .  S
C1010      H1012   1.087       .  S
C1013      C1014   1.344       .  D
C1013      H1015   1.087       .  S
C1014      H1016   1.086       .  S
C1017      C1018   1.207       .  T
C1019      C1020   1.207       .  T
C1021      C1022   1.207       .  T
C1023      C1024   1.208       .  T
C1025      C1026   1.206       .  T
C1027      C1028   1.205       .  T
C1029      C1030   1.204       .  T
C1031      C1032   1.208       .  T
C1033      C1034   1.355       .  D
C1033      H1035   1.083       .  S
C1034      H1036   1.086       .  S
C1037      C1038   1.352       .  D
C1037      H1039   1.086       .  S
C1038      H1040   1.086       .  S
C1041      C1042   1.350       .  D
C1041      H1043   1.083       .  S
C1042      H1044   1.087       .  S
C1045      C1046   1.350       .  D
C1045      H1047   1.083       .  S
C1046      H1048   1.087       .  S
C1049      C1050   1.341       .  D
C1049      H1051   1.086       .  S
C1050      H1052   1.088       .  S
C1053      C1054   1.343       .  D
C1053      H1055   1.087       .  S
C1054      H1056   1.086       .  S
C1057      C1058   1.341       .  D
C1057      H1059   1.086       .  S
C1058      H1060   1.086       .  S
C1061      C1062   1.347       .  D
C1061      H1063   1.087       .  S
C1062      H1064   1.086       .  S
C1065      C1066   1.203       .  T
C1067      C1068   1.205       .  T
C1069      C1070   1.206       .  T
C1071      C1072   1.204       .  T
C1073      C1074   1.354       .  D
C1073      H1075   1.087       .  S
C1074      H1076   1.086       .  S
C1077      C1078   1.352       .  D
C1077      H1079   1.087       .  S
C1078      H1080   1.086       .  S
C1081      C1082   1.205       .  T
C1083      C1084   1.209       .  T
C1085      C1086   1.353       .  D
C1085      H1087   1.086       .  S
C1086      H1088   1.085       .  S
C1089      C1090   1.352       .  D
C1089      H1091   1.083       .  S
C1090      H1092   1.087       .  S
C1093      C1094   1.209       .  T
C1095      C1096   1.209       .  T
N1097      C1102   1.359       .  A
N1097      C1101   1.360       .  A
N1097      H1129   1.040       .  S
N1098      C1105   1.353       .  A
N1098      C1106   1.351       .  A
N1099      C1104   1.352       .  A
N1099      C1103   1.353       .  A
N1099      H1130   1.037       .  S
N1100      C1107   1.353       .  A
N1100      C1108   1.354       .  A
C1101      C1109   1.388       .  A
C1101      C1117   1.427       .  A
C1102      C1118   1.427       .  A
C1102      C1110   1.389       .  A
C1103      C1111   1.387       .  A
C1103      C1120   1.413       .  A
C1104      C1119   1.413       .  A
C1104      C1112   1.387       .  A
C1105      C1117   1.415       .  A
C1105      C1113   1.387       .  A
C1106      C1120   1.411       .  A
C1106      C1114   1.385       .  A
C1107      C1115   1.389       .  A
C1107      C1118   1.419       .  A
C1108      C1116   1.385       .  A
C1108      C1119   1.415       .  A
C1109      C1110   1.375       .  A
C1109      H1121   1.082       .  S
C1110      H1122   1.081       .  S
C1111      C1112   1.378       .  A
C1111      H1123   1.082       .  S
C1112      H1124   1.082       .  S
C1113      C1114   1.373       .  A
C1113      H1125   1.082       .  S
C1114      H1126   1.082       .  S
C1115      C1116   1.369       .  A
C1115      H1127   1.079       .  S
C1116      H1128   1.082       .  S
C1117      C1638   1.508       .  S
C1118      C1633   1.496       .  S
C1119      C1641   1.455       .  S
C1120      C1643   1.451       .  S
N1131      C1136   1.354       .  A
N1131      C1135   1.352       .  A
N1131      H1163   1.040       .  S
N1132      C1139   1.352       .  A
N1132      C1140   1.352       .  A
N1133      C1138   1.355       .  A
N1133      C1137   1.353       .  A
N1133      H1164   1.040       .  S
N1134      C1141   1.355       .  A
N1134      C1142   1.355       .  A
C1135      C1143   1.387       .  A
C1135      C1151   1.412       .  A
C1136      C1152   1.416       .  A
C1136      C1144   1.388       .  A
C1137      C1145   1.386       .  A
C1137      C1154   1.412       .  A
C1138      C1153   1.417       .  A
C1138      C1146   1.388       .  A
C1139      C1151   1.411       .  A
C1139      C1147   1.387       .  A
C1140      C1154   1.411       .  A
C1140      C1148   1.386       .  A
C1141      C1149   1.386       .  A
C1141      C1152   1.419       .  A
C1142      C1150   1.387       .  A
C1142      C1153   1.418       .  A
C1143      C1144   1.376       .  A
C1143      H1155   1.082       .  S
C1144      H1156   1.082       .  S
C1145      C1146   1.374       .  A
C1145      H1157   1.082       .  S
C1146      H1158   1.081       .  S
C1147      C1148   1.374       .  A
C1147      H1159   1.082       .  S
C1148      H1160   1.082       .  S
C1149      C1150   1.372       .  A
C1149      H1161   1.082       .  S
C1150      H1162   1.082       .  S
C1151      C1629   1.449       .  S
C1152      C1621   1.495       .  S
C1153      C1625   1.495       .  S
C1154      C1631   1.452       .  S
N1165      N1166   1.324       .  A
N1165      N1171   1.316       .  A
N1165     Mn1742   2.215       .  S
N1166      C1173   1.355       .  A
N1167      N1169   1.316       .  A
N1167      N1168   1.319       .  A
N1167     Mn1183   2.196       .  S
N1168      C1174   1.349       .  A
N1169      N1170   1.324       .  A
N1169     Mn1194   2.218       .  S
N1170      C1174   1.355       .  A
N1171      N1172   1.318       .  A
N1171     Mn1731   2.191       .  S
N1172      C1173   1.347       .  A
C1173      C1644   1.436       .  S
C1174      C1642   1.440       .  S
N1175      N1181   1.315       .  A
N1175      N1176   1.323       .  A
N1175     Mn1205   2.209       .  S
N1176      C1184   1.353       .  A
N1177      N1178   1.318       .  A
N1177      N1179   1.317       .  A
N1177     Mn1731   2.193       .  S
N1178      C1185   1.348       .  A
N1179      N1180   1.324       .  A
N1179     Mn1753   2.216       .  S
N1180      C1185   1.354       .  A
N1181      N1182   1.318       .  A
N1181     Mn1183   2.189       .  S
N1182      C1184   1.348       .  A
Mn1183     N1719   2.193   1_545  S
Mn1183     N1725   2.194   1_545  S
Mn1183    Cl1207   2.530       .  S
C1184      C1630   1.435       .  S
C1185      C1632   1.437       .  S
N1186      N1187   1.324       .  A
N1186      N1192   1.316       .  A
N1186     Mn1194   2.215       .  S
N1187      C1195   1.354       .  A
N1188      N1190   1.316       .  A
N1188      N1189   1.317       .  A
N1188     Mn1754   2.188       .  S
N1189      C1196   1.347       .  A
N1190      N1191   1.324       .  A
N1190     Mn1742   2.217       .  S
N1191      C1196   1.354       .  A
N1192      N1193   1.317       .  A
N1192     Mn1206   2.187       .  S
N1193      C1195   1.346       .  A
Mn1194     N1713   2.219   1_545  S
Mn1194     N1738   2.215   1_545  S
Mn1194    Cl1207   2.564       .  S
C1195      C1614   1.434       .  S
C1196      C1616   1.435       .  S
N1197      N1198   1.323       .  A
N1197      N1203   1.316       .  A
N1197     Mn1753   2.208       .  S
N1198      C1208   1.353       .  A
N1199      N1200   1.318       .  A
N1199      N1201   1.317       .  A
N1199     Mn1206   2.192       .  S
N1200      C1209   1.347       .  A
N1201      N1202   1.324       .  A
N1201     Mn1205   2.219       .  S
N1202      C1209   1.354       .  A
N1203      N1204   1.318       .  A
N1203     Mn1754   2.194       .  S
N1204      C1208   1.349       .  A
Mn1205     N1727   2.219   1_545  S
Mn1205     N1745   2.203   1_545  S
Mn1205    Cl1207   2.563       .  S
Mn1206     N1736   2.195   1_545  S
Mn1206     N1751   2.191   1_545  S
Mn1206    Cl1207   2.534       .  S
C1208      C1620   1.434       .  S
C1209      C1617   1.436       .  S
N1210      C1215   1.355       .  A
N1210      C1214   1.352       .  A
N1210      H1242   1.037       .  S
N1211      C1218   1.353       .  A
N1211      C1219   1.353       .  A
N1212      C1217   1.354       .  A
N1212      C1216   1.352       .  A
N1212      H1243   1.038       .  S
N1213      C1220   1.348       .  A
N1213      C1221   1.349       .  A
C1214      C1222   1.386       .  A
C1214      C1230   1.413       .  A
C1215      C1231   1.418       .  A
C1215      C1223   1.389       .  A
C1216      C1224   1.387       .  A
C1216      C1233   1.416       .  A
C1217      C1232   1.414       .  A
C1217      C1225   1.388       .  A
C1218      C1230   1.413       .  A
C1218      C1226   1.386       .  A
C1219      C1233   1.414       .  A
C1219      C1227   1.386       .  A
C1220      C1228   1.387       .  A
C1220      C1231   1.410       .  A
C1221      C1229   1.386       .  A
C1221      C1232   1.408       .  A
C1222      C1223   1.375       .  A
C1222      H1234   1.083       .  S
C1223      H1235   1.082       .  S
C1224      C1225   1.373       .  A
C1224      H1236   1.082       .  S
C1225      H1237   1.082       .  S
C1226      C1227   1.376       .  A
C1226      H1238   1.082       .  S
C1227      H1239   1.082       .  S
C1228      C1229   1.375       .  A
C1228      H1240   1.082       .  S
C1229      H1241   1.082       .  S
C1230      C1609   1.482       .  S
C1231      C1615   1.450       .  S
C1232      C1613   1.450       .  S
C1233      C1605   1.492       .  S
N1244      C1249   1.351       .  A
N1244      C1248   1.354       .  A
N1244      H1276   1.039       .  S
N1245      C1252   1.349       .  A
N1245      C1253   1.348       .  A
N1246      C1251   1.352       .  A
N1246      C1250   1.354       .  A
N1246      H1277   1.038       .  S
N1247      C1254   1.352       .  A
N1247      C1255   1.352       .  A
C1248      C1256   1.387       .  A
C1248      C1264   1.413       .  A
C1249      C1265   1.414       .  A
C1249      C1257   1.387       .  A
C1250      C1258   1.389       .  A
C1250      C1267   1.416       .  A
C1251      C1266   1.411       .  A
C1251      C1259   1.386       .  A
C1252      C1264   1.408       .  A
C1252      C1260   1.386       .  A
C1253      C1267   1.409       .  A
C1253      C1261   1.387       .  A
C1254      C1262   1.386       .  A
C1254      C1265   1.412       .  A
C1255      C1263   1.386       .  A
C1255      C1266   1.412       .  A
C1256      C1257   1.374       .  A
C1256      H1268   1.082       .  S
C1257      H1269   1.083       .  S
C1258      C1259   1.375       .  A
C1258      H1270   1.082       .  S
C1259      H1271   1.082       .  S
C1260      C1261   1.376       .  A
C1260      H1272   1.082       .  S
C1261      H1273   1.082       .  S
C1262      C1263   1.377       .  A
C1262      H1274   1.082       .  S
C1263      H1275   1.082       .  S
C1264      C1618   1.450       .  S
C1265      C1597   1.489       .  S
C1266      C1601   1.481       .  S
C1267      C1619   1.449       .  S
N1278      N1279   1.316       .  A
N1278      N1284   1.318       .  A
N1279      C1286   1.345       .  A
N1280      N1282   1.318       .  A
N1280      N1281   1.317       .  A
N1280     Mn1296   2.197       .  S
N1281      C1287   1.347       .  A
N1282      N1283   1.327       .  A
N1283      C1287   1.360       .  A
N1284      N1285   1.328       .  A
N1284     Mn1296   2.233       .  S
N1285      C1286   1.360       .  A
C1286      C1637   1.478       .  S
C1287      C1581   1.479       .  S
N1288      N1294   1.317       .  A
N1288      N1289   1.328       .  A
N1289      C1297   1.361       .  A
N1290      N1291   1.327       .  A
N1290      N1292   1.316       .  A
N1290     Mn1844   2.224       .  S
N1291      C1298   1.361       .  A
N1292      N1293   1.315       .  A
N1293      C1298   1.346       .  A
N1294      N1295   1.316       .  A
N1294     Mn1844   2.187       .  S
N1295      C1297   1.346       .  A
Mn1296     N1838   2.231       .  S
Mn1296     N1842   2.192       .  S
C1297      C1589   1.479       .  S
C1298      C1634   1.480       .  S
N1299      N1300   1.326       .  A
N1299      N1305   1.317       .  A
N1299     Mn1307   2.225       .  S
N1300      C1308   1.359       .  A
N1301      N1303   1.318       .  A
N1301      N1302   1.329       .  A
N1301     Mn1319   2.236       .  S
N1302      C1309   1.361       .  A
N1303      N1304   1.314       .  A
N1303     Mn1307   2.188       .  S
N1304      C1309   1.347       .  A
N1305      N1306   1.316       .  A
N1305     Mn1319   2.191       .  S
N1306      C1308   1.347       .  A
Mn1307    Cl1320   2.544       .  S
C1308      C1586   1.478       .  S
C1309      C1626   1.485       .  S
N1310      N1311   1.316       .  A
N1310      N1316   1.317       .  A
N1310     Mn1318   2.196       .  S
N1311      C1321   1.348       .  A
N1312      N1313   1.316       .  A
N1312      N1314   1.316       .  A
N1312     Mn1867   2.189       .  S
N1313      C1322   1.346       .  A
N1314      N1315   1.327       .  A
N1314     Mn1318   2.223       .  S
N1315      C1322   1.359       .  A
N1316      N1317   1.328       .  A
N1316     Mn1867   2.226       .  S
N1317      C1321   1.361       .  A
Mn1318    Cl1868   2.537       .  S
Mn1319     N1860   2.192       .  S
Mn1319     N1864   2.232       .  S
Mn1319    Cl1320   2.558       .  S
Cl1320    Mn1866   2.534       .  S
C1321      C1622   1.484       .  S
C1322      C1593   1.474       .  S
N1323      N1324   1.324       .  A
N1323      N1329   1.316       .  A
N1324      C1331   1.355       .  A
N1325      N1327   1.317       .  A
N1325      N1326   1.319       .  A
N1325     Mn1341   2.198       .  S
N1326      C1332   1.349       .  A
N1327      N1328   1.323       .  A
N1327     Mn1352   2.214       .  S
N1328      C1332   1.354       .  A
N1329      N1330   1.318       .  A
N1330      C1331   1.347       .  A
C1331      C1579   1.437       .  S
C1332      C1577   1.438       .  S
N1333      N1339   1.316       .  A
N1333      N1334   1.323       .  A
N1333     Mn1363   2.210   1_556  S
N1334      C1342   1.353       .  A
N1335      N1336   1.318       .  A
N1335      N1337   1.316       .  A
N1336      C1343   1.348       .  A
N1337      N1338   1.325       .  A
N1338      C1343   1.355       .  A
N1339      N1340   1.318       .  A
N1339     Mn1341   2.191       .  S
N1340      C1342   1.348       .  A
Mn1341    Cl1365   2.530       .  S
C1342      C1573   1.433       .  S
C1343      C1576   1.438       .  S
N1344      N1345   1.325       .  A
N1344      N1350   1.316       .  A
N1344     Mn1352   2.218   1_554  S
N1345      C1353   1.355       .  A
N1346      N1348   1.317       .  A
N1346      N1347   1.318       .  A
N1347      C1354   1.348       .  A
N1348      N1349   1.324       .  A
N1349      C1354   1.354       .  A
N1350      N1351   1.316       .  A
N1350     Mn1364   2.183       .  S
N1351      C1353   1.346       .  A
Mn1352    Cl1365   2.566       .  S
C1353      C1566   1.435       .  S
C1354      C1567   1.435       .  S
N1355      N1356   1.324       .  A
N1355      N1361   1.316       .  A
N1356      C1366   1.355       .  A
N1357      N1358   1.320       .  A
N1357      N1359   1.316       .  A
N1357     Mn1364   2.201       .  S
N1358      C1367   1.350       .  A
N1359      N1360   1.324       .  A
N1359     Mn1363   2.217       .  S
N1360      C1367   1.354       .  A
N1361      N1362   1.318       .  A
N1362      C1366   1.346       .  A
Mn1363    Cl1365   2.565   1_554  S
Mn1364    Cl1365   2.530   1_554  S
C1366      C1571   1.435       .  S
C1367      C1569   1.440       .  S
N1368      C1373   1.354       .  A
N1368      C1372   1.352       .  A
N1368      H1400   1.041       .  S
N1369      C1376   1.350       .  A
N1369      C1377   1.351       .  A
N1370      C1375   1.353       .  A
N1370      C1374   1.354       .  A
N1370      H1401   1.041       .  S
N1371      C1378   1.353       .  A
N1371      C1379   1.352       .  A
C1372      C1380   1.388       .  A
C1372      C1388   1.413       .  A
C1373      C1389   1.416       .  A
C1373      C1381   1.387       .  A
C1374      C1382   1.387       .  A
C1374      C1391   1.414       .  A
C1375      C1390   1.416       .  A
C1375      C1383   1.387       .  A
C1376      C1388   1.409       .  A
C1376      C1384   1.387       .  A
C1377      C1391   1.409       .  A
C1377      C1385   1.386       .  A
C1378      C1386   1.386       .  A
C1378      C1389   1.412       .  A
C1379      C1387   1.387       .  A
C1379      C1390   1.414       .  A
C1380      C1381   1.375       .  A
C1380      H1392   1.082       .  S
C1381      H1393   1.082       .  S
C1382      C1383   1.376       .  A
C1382      H1394   1.082       .  S
C1383      H1395   1.082       .  S
C1384      C1385   1.376       .  A
C1384      H1396   1.082       .  S
C1385      H1397   1.082       .  S
C1386      C1387   1.372       .  A
C1386      H1398   1.082       .  S
C1387      H1399   1.082       .  S
C1388      C1574   1.448       .  S
C1389      C1558   1.496       .  S
C1390      C1561   1.494       .  S
C1391      C1575   1.453       .  S
N1402      C1407   1.353       .  A
N1402      C1406   1.352       .  A
N1402      H1434   1.039       .  S
N1403      C1410   1.352       .  A
N1403      C1411   1.354       .  A
N1404      C1409   1.353       .  A
N1404      C1408   1.353       .  A
N1404      H1435   1.039       .  S
N1405      C1412   1.351       .  A
N1405      C1413   1.352       .  A
C1406      C1414   1.388       .  A
C1406      C1422   1.414       .  A
C1407      C1423   1.413       .  A
C1407      C1415   1.387       .  A
C1408      C1416   1.387       .  A
C1408      C1425   1.414       .  A
C1409      C1424   1.414       .  A
C1409      C1417   1.387       .  A
C1410      C1422   1.412       .  A
C1410      C1418   1.385       .  A
C1411      C1425   1.419       .  A
C1411      C1419   1.388       .  A
C1412      C1420   1.384       .  A
C1412      C1423   1.409       .  A
C1413      C1421   1.388       .  A
C1413      C1424   1.418       .  A
C1414      C1415   1.379       .  A
C1414      H1426   1.082       .  S
C1415      H1427   1.082       .  S
C1416      C1417   1.375       .  A
C1416      H1428   1.082       .  S
C1417      H1429   1.082       .  S
C1418      C1419   1.374       .  A
C1418      H1430   1.082       .  S
C1419      H1431   1.081       .  S
C1420      C1421   1.373       .  A
C1420      H1432   1.082       .  S
C1421      H1433   1.081       .  S
C1422      C1580   1.452       .  S
C1423      C1578   1.452       .  S
C1424      C1550   1.492       .  S
C1425      C1553   1.494       .  S
N1436      N1437   1.324       .  A
N1436      N1442   1.315       .  A
N1436     Mn1465   2.218       .  S
N1437      C1444   1.355       .  A
N1438      N1440   1.314       .  A
N1438      N1439   1.316       .  A
N1438     Mn2002   2.182   1_545  S
N1439      C1445   1.347       .  A
N1440      N1441   1.325       .  A
N1440     Mn2013   2.210       .  S
N1441      C1445   1.356       .  A
N1442      N1443   1.318       .  A
N1442     Mn1454   2.190       .  S
N1443      C1444   1.352       .  A
C1444      C1602   1.478       .  S
C1445      C1598   1.466       .  S
N1446      N1452   1.315       .  A
N1446      N1447   1.326       .  A
N1446     Mn2024   2.218       .  S
N1447      C1455   1.357       .  A
N1448      N1449   1.316       .  A
N1448      N1450   1.314       .  A
N1449      C1456   1.350       .  A
N1450      N1451   1.326       .  A
N1450     Mn1476   2.215       .  S
N1451      C1456   1.357       .  A
N1452      N1453   1.315       .  A
N1453      C1455   1.346       .  A
Mn1454     N1986   2.174       .  S
Mn1454    Cl1478   2.529       .  S
C1455      C1606   1.468       .  S
C1456      C1610   1.480       .  S
N1457      N1458   1.319       .  A
N1457      N1463   1.316       .  A
N1457     Mn2013   2.202       .  S
N1458      C1466   1.354       .  A
N1459      N1461   1.317       .  A
N1459      N1460   1.319       .  A
N1459     Mn1477   2.197       .  S
N1460      C1467   1.350       .  A
N1461      N1462   1.322       .  A
N1461     Mn1465   2.213       .  S
N1462      C1467   1.356       .  A
N1463      N1464   1.321       .  A
N1463     Mn2025   2.203       .  S
N1464      C1466   1.353       .  A
Mn1465     N1988   2.230       .  S
Mn1465     N2005   2.203       .  S
Mn1465    Cl1478   2.558       .  S
C1466      C1549   1.475       .  S
C1467      C1557   1.474       .  S
N1468      N1469   1.319       .  A
N1468      N1474   1.317       .  A
N1468     Mn1476   2.192       .  S
N1469      C1479   1.353       .  A
N1470      N1471   1.320       .  A
N1470      N1472   1.316       .  A
N1471      C1480   1.351       .  A
N1472      N1473   1.321       .  A
N1472     Mn2024   2.211       .  S
N1473      C1480   1.356       .  A
N1474      N1475   1.321       .  A
N1475      C1479   1.353       .  A
Mn1476     N1994   2.199       .  S
Mn1476     N2020   2.202       .  S
Mn1477     N2011   2.205       .  S
Mn1477    Cl1478   2.528       .  S
C1479      C1562   1.475       .  S
C1480      C1554   1.477       .  S
N1481      C1486   1.357       .  A
N1481      C1485   1.358       .  A
N1481      H1513   1.043       .  S
N1482      C1489   1.352       .  A
N1482      C1490   1.349       .  A
N1483      C1488   1.351       .  A
N1483      C1487   1.351       .  A
N1483      H1514   1.040       .  S
N1484      C1491   1.351       .  A
N1484      C1492   1.350       .  A
C1485      C1493   1.388       .  A
C1485      C1501   1.423       .  A
C1486      C1502   1.422       .  A
C1486      C1494   1.388       .  A
C1487      C1495   1.387       .  A
C1487      C1504   1.410       .  A
C1488      C1503   1.410       .  A
C1488      C1496   1.387       .  A
C1489      C1501   1.413       .  A
C1489      C1497   1.386       .  A
C1490      C1504   1.410       .  A
C1490      C1498   1.386       .  A
C1491      C1499   1.387       .  A
C1491      C1502   1.414       .  A
C1492      C1500   1.386       .  A
C1492      C1503   1.411       .  A
C1493      C1494   1.377       .  A
C1493      H1505   1.082       .  S
C1494      H1506   1.082       .  S
C1495      C1496   1.381       .  A
C1495      H1507   1.082       .  S
C1496      H1508   1.082       .  S
C1497      C1498   1.376       .  A
C1497      H1509   1.081       .  S
C1498      H1510   1.082       .  S
C1499      C1500   1.376       .  A
C1499      H1511   1.081       .  S
C1500      H1512   1.082       .  S
C1501      C1590   1.507       .  S
C1502      C1594   1.503       .  S
C1503      C1565   1.449       .  S
C1504      C1568   1.448       .  S
N1515      C1520   1.358       .  A
N1515      C1519   1.360       .  A
N1515      H1547   1.040       .  S
N1516      C1523   1.352       .  A
N1516      C1524   1.350       .  A
N1517      C1522   1.353       .  A
N1517      C1521   1.352       .  A
N1517      H1548   1.038       .  S
N1518      C1525   1.353       .  A
N1518      C1526   1.354       .  A
C1519      C1527   1.387       .  A
C1519      C1535   1.426       .  A
C1520      C1536   1.426       .  A
C1520      C1528   1.389       .  A
C1521      C1529   1.388       .  A
C1521      C1538   1.413       .  A
C1522      C1537   1.413       .  A
C1522      C1530   1.387       .  A
C1523      C1535   1.415       .  A
C1523      C1531   1.387       .  A
C1524      C1538   1.410       .  A
C1524      C1532   1.385       .  A
C1525      C1533   1.390       .  A
C1525      C1536   1.419       .  A
C1526      C1534   1.384       .  A
C1526      C1537   1.414       .  A
C1527      C1528   1.375       .  A
C1527      H1539   1.082       .  S
C1528      H1540   1.081       .  S
C1529      C1530   1.378       .  A
C1529      H1541   1.082       .  S
C1530      H1542   1.082       .  S
C1531      C1532   1.375       .  A
C1531      H1543   1.081       .  S
C1532      H1544   1.082       .  S
C1533      C1534   1.369       .  A
C1533      H1545   1.079       .  S
C1534      H1546   1.082       .  S
C1535      C1582   1.507       .  S
C1536      C1585   1.497       .  S
C1537      C1570   1.455       .  S
C1538      C1572   1.449       .  S
C1549      C1550   1.345       .  D
C1549      H1551   1.086       .  S
C1550      H1552   1.087       .  S
C1553      C1554   1.344       .  D
C1553      H1555   1.087       .  S
C1554      H1556   1.086       .  S
C1557      C1558   1.343       .  D
C1557      H1559   1.086       .  S
C1558      H1560   1.087       .  S
C1561      C1562   1.345       .  D
C1561      H1563   1.087       .  S
C1562      H1564   1.086       .  S
C1565      C1566   1.206       .  T
C1567      C1568   1.206       .  T
C1569      C1570   1.209       .  T
C1571      C1572   1.206       .  T
C1573      C1574   1.205       .  T
C1575      C1576   1.208       .  T
C1577      C1578   1.208       .  T
C1579      C1580   1.207       .  T
C1581      C1582   1.353       .  D
C1581      H1583   1.083       .  S
C1582      H1584   1.087       .  S
C1585      C1586   1.350       .  D
C1585      H1587   1.086       .  S
C1586      H1588   1.086       .  S
C1589      C1590   1.353       .  D
C1589      H1591   1.082       .  S
C1590      H1592   1.087       .  S
C1593      C1594   1.350       .  D
C1593      H1595   1.082       .  S
C1594      H1596   1.087       .  S
C1597      C1598   1.342       .  D
C1597      H1599   1.086       .  S
C1598      H1600   1.088       .  S
C1601      C1602   1.343       .  D
C1601      H1603   1.086       .  S
C1602      H1604   1.086       .  S
C1605      C1606   1.342       .  D
C1605      H1607   1.086       .  S
C1606      H1608   1.088       .  S
C1609      C1610   1.345       .  D
C1609      H1611   1.087       .  S
C1610      H1612   1.086       .  S
C1613      C1614   1.206       .  T
C1615      C1616   1.206       .  T
C1617      C1618   1.207       .  T
C1619      C1620   1.205       .  T
C1621      C1622   1.352       .  D
C1621      H1623   1.087       .  S
C1622      H1624   1.086       .  S
C1625      C1626   1.352       .  D
C1625      H1627   1.087       .  S
C1626      H1628   1.086       .  S
C1629      C1630   1.206       .  T
C1631      C1632   1.207       .  T
C1633      C1634   1.352       .  D
C1633      H1635   1.086       .  S
C1634      H1636   1.086       .  S
C1637      C1638   1.354       .  D
C1637      H1639   1.083       .  S
C1638      H1640   1.086       .  S
C1641      C1642   1.209       .  T
C1643      C1644   1.207       .  T
N1645      C1650   1.360       .  A
N1645      C1649   1.359       .  A
N1645      H1677   1.039       .  S
N1646      C1653   1.353       .  A
N1646      C1654   1.353       .  A
N1647      C1652   1.352       .  A
N1647      C1651   1.353       .  A
N1647      H1678   1.037       .  S
N1648      C1655   1.353       .  A
N1648      C1656   1.353       .  A
C1649      C1657   1.388       .  A
C1649      C1665   1.426       .  A
C1650      C1666   1.427       .  A
C1650      C1658   1.389       .  A
C1651      C1659   1.387       .  A
C1651      C1668   1.414       .  A
C1652      C1667   1.414       .  A
C1652      C1660   1.387       .  A
C1653      C1665   1.417       .  A
C1653      C1661   1.387       .  A
C1654      C1668   1.413       .  A
C1654      C1662   1.385       .  A
C1655      C1663   1.389       .  A
C1655      C1666   1.418       .  A
C1656      C1664   1.385       .  A
C1656      C1667   1.415       .  A
C1657      C1658   1.374       .  A
C1657      H1669   1.082       .  S
C1658      H1670   1.081       .  S
C1659      C1660   1.378       .  A
C1659      H1671   1.082       .  S
C1660      H1672   1.082       .  S
C1661      C1662   1.374       .  A
C1661      H1673   1.081       .  S
C1662      H1674   1.082       .  S
C1663      C1664   1.368       .  A
C1663      H1675   1.079       .  S
C1664      H1676   1.082       .  S
C1665      C2186   1.506       .  S
C1666      C2181   1.498       .  S
C1667      C2189   1.453       .  S
C1668      C2191   1.455       .  S
N1679      C1684   1.356       .  A
N1679      C1683   1.352       .  A
N1679      H1711   1.039       .  S
N1680      C1687   1.352       .  A
N1680      C1688   1.353       .  A
N1681      C1686   1.356       .  A
N1681      C1685   1.355       .  A
N1681      H1712   1.038       .  S
N1682      C1689   1.357       .  A
N1682      C1690   1.356       .  A
C1683      C1691   1.387       .  A
C1683      C1699   1.412       .  A
C1684      C1700   1.418       .  A
C1684      C1692   1.388       .  A
C1685      C1693   1.386       .  A
C1685      C1702   1.415       .  A
C1686      C1701   1.420       .  A
C1686      C1694   1.389       .  A
C1687      C1699   1.411       .  A
C1687      C1695   1.387       .  A
C1688      C1702   1.412       .  A
C1688      C1696   1.386       .  A
C1689      C1697   1.386       .  A
C1689      C1700   1.421       .  A
C1690      C1698   1.387       .  A
C1690      C1701   1.422       .  A
C1691      C1692   1.374       .  A
C1691      H1703   1.083       .  S
C1692      H1704   1.081       .  S
C1693      C1694   1.374       .  A
C1693      H1705   1.082       .  S
C1694      H1706   1.081       .  S
C1695      C1696   1.372       .  A
C1695      H1707   1.082       .  S
C1696      H1708   1.082       .  S
C1697      C1698   1.372       .  A
C1697      H1709   1.082       .  S
C1698      H1710   1.082       .  S
C1699      C2177   1.448       .  S
C1700      C2169   1.499       .  S
C1701      C2173   1.496       .  S
C1702      C2179   1.455       .  S
N1713      N1714   1.325       .  A
N1713      N1719   1.316       .  A
N1714      C1721   1.355       .  A
N1715      N1717   1.316       .  A
N1715      N1716   1.319       .  A
N1715     Mn1731   2.197       .  S
N1716      C1722   1.349       .  A
N1717      N1718   1.324       .  A
N1717     Mn1742   2.215       .  S
N1718      C1722   1.353       .  A
N1719      N1720   1.318       .  A
N1720      C1721   1.348       .  A
C1721      C2192   1.440       .  S
C1722      C2190   1.438       .  S
N1723      N1729   1.316       .  A
N1723      N1724   1.323       .  A
N1723     Mn1753   2.207       .  S
N1724      C1732   1.352       .  A
N1725      N1726   1.318       .  A
N1725      N1727   1.316       .  A
N1726      C1733   1.347       .  A
N1727      N1728   1.325       .  A
N1728      C1733   1.355       .  A
N1729      N1730   1.318       .  A
N1729     Mn1731   2.190       .  S
N1730      C1732   1.348       .  A
Mn1731    Cl1755   2.532       .  S
C1732      C2178   1.433       .  S
C1733      C2180   1.439       .  S
N1734      N1735   1.323       .  A
N1734      N1740   1.316       .  A
N1734     Mn1742   2.205       .  S
N1735      C1743   1.352       .  A
N1736      N1738   1.317       .  A
N1736      N1737   1.319       .  A
N1737      C1744   1.348       .  A
N1738      N1739   1.323       .  A
N1739      C1744   1.353       .  A
N1740      N1741   1.318       .  A
N1740     Mn1754   2.192       .  S
N1741      C1743   1.348       .  A
Mn1742    Cl1755   2.563       .  S
C1743      C2162   1.433       .  S
C1744      C2164   1.435       .  S
N1745      N1746   1.322       .  A
N1745      N1751   1.316       .  A
N1746      C1756   1.352       .  A
N1747      N1748   1.318       .  A
N1747      N1749   1.316       .  A
N1747     Mn1754   2.189       .  S
N1748      C1757   1.347       .  A
N1749      N1750   1.324       .  A
N1749     Mn1753   2.216       .  S
N1750      C1757   1.354       .  A
N1751      N1752   1.318       .  A
N1752      C1756   1.348       .  A
Mn1753    Cl1755   2.563       .  S
Mn1754    Cl1755   2.530       .  S
C1756      C2168   1.432       .  S
C1757      C2165   1.435       .  S
N1758      C1763   1.354       .  A
N1758      C1762   1.355       .  A
N1758      H1790   1.035       .  S
N1759      C1766   1.353       .  A
N1759      C1767   1.353       .  A
N1760      C1765   1.353       .  A
N1760      C1764   1.351       .  A
N1760      H1791   1.037       .  S
N1761      C1768   1.350       .  A
N1761      C1769   1.351       .  A
C1762      C1770   1.388       .  A
C1762      C1778   1.418       .  A
C1763      C1779   1.418       .  A
C1763      C1771   1.388       .  A
C1764      C1772   1.388       .  A
C1764      C1781   1.412       .  A
C1765      C1780   1.414       .  A
C1765      C1773   1.388       .  A
C1766      C1778   1.415       .  A
C1766      C1774   1.387       .  A
C1767      C1781   1.413       .  A
C1767      C1775   1.386       .  A
C1768      C1776   1.387       .  A
C1768      C1779   1.412       .  A
C1769      C1777   1.386       .  A
C1769      C1780   1.410       .  A
C1770      C1771   1.374       .  A
C1770      H1782   1.081       .  S
C1771      H1783   1.082       .  S
C1772      C1773   1.372       .  A
C1772      H1784   1.082       .  S
C1773      H1785   1.082       .  S
C1774      C1775   1.376       .  A
C1774      H1786   1.082       .  S
C1775      H1787   1.082       .  S
C1776      C1777   1.374       .  A
C1776      H1788   1.082       .  S
C1777      H1789   1.082       .  S
C1778      C2157   1.486       .  S
C1779      C2163   1.451       .  S
C1780      C2161   1.449       .  S
C1781      C2153   1.479       .  S
N1792      C1797   1.354       .  A
N1792      C1796   1.355       .  A
N1792      H1824   1.037       .  S
N1793      C1800   1.349       .  A
N1793      C1801   1.350       .  A
N1794      C1799   1.353       .  A
N1794      C1798   1.354       .  A
N1794      H1825   1.037       .  S
N1795      C1802   1.352       .  A
N1795      C1803   1.353       .  A
C1796      C1804   1.388       .  A
C1796      C1812   1.416       .  A
C1797      C1813   1.419       .  A
C1797      C1805   1.387       .  A
C1798      C1806   1.389       .  A
C1798      C1815   1.415       .  A
C1799      C1814   1.412       .  A
C1799      C1807   1.386       .  A
C1800      C1812   1.410       .  A
C1800      C1808   1.387       .  A
C1801      C1815   1.410       .  A
C1801      C1809   1.387       .  A
C1802      C1810   1.387       .  A
C1802      C1813   1.414       .  A
C1803      C1811   1.385       .  A
C1803      C1814   1.412       .  A
C1804      C1805   1.375       .  A
C1804      H1816   1.082       .  S
C1805      H1817   1.082       .  S
C1806      C1807   1.373       .  A
C1806      H1818   1.082       .  S
C1807      H1819   1.082       .  S
C1808      C1809   1.374       .  A
C1808      H1820   1.082       .  S
C1809      H1821   1.082       .  S
C1810      C1811   1.375       .  A
C1810      H1822   1.082       .  S
C1811      H1823   1.082       .  S
C1812      C2166   1.450       .  S
C1813      C2145   1.493       .  S
C1814      C2149   1.482       .  S
C1815      C2167   1.447       .  S
N1826      N1827   1.317       .  A
N1826      N1832   1.318       .  A
N1827      C1834   1.346       .  A
N1828      N1830   1.318       .  A
N1828      N1829   1.316       .  A
N1828     Mn1844   2.193   1_565  S
N1829      C1835   1.345       .  A
N1830      N1831   1.330       .  A
N1831      C1835   1.363       .  A
N1832      N1833   1.327       .  A
N1832     Mn1844   2.227   1_565  S
N1833      C1834   1.359       .  A
C1834      C2185   1.477       .  S
C1835      C2129   1.484       .  S
N1836      N1842   1.317       .  A
N1836      N1837   1.327       .  A
N1837      C1845   1.359       .  A
N1838      N1839   1.328       .  A
N1838      N1840   1.317       .  A
N1839      C1846   1.361       .  A
N1840      N1841   1.315       .  A
N1841      C1846   1.346       .  A
N1842      N1843   1.317       .  A
N1843      C1845   1.347       .  A
C1845      C2137   1.476       .  S
C1846      C2182   1.482       .  S
N1847      N1848   1.327       .  A
N1847      N1853   1.317       .  A
N1847     Mn1855   2.233       .  S
N1848      C1856   1.361       .  A
N1849      N1851   1.317       .  A
N1849      N1850   1.328       .  A
N1849     Mn1867   2.231   1_565  S
N1850      C1857   1.361       .  A
N1851      N1852   1.315       .  A
N1851     Mn1855   2.190       .  S
N1852      C1857   1.347       .  A
N1853      N1854   1.316       .  A
N1853     Mn1867   2.188   1_565  S
N1854      C1856   1.346       .  A
Mn1855    Cl1868   2.545   1_565  S
C1856      C2134   1.481       .  S
C1857      C2174   1.485       .  S
N1858      N1859   1.315       .  A
N1858      N1864   1.316       .  A
N1858     Mn1866   2.189       .  S
N1859      C1869   1.347       .  A
N1860      N1861   1.317       .  A
N1860      N1862   1.316       .  A
N1861      C1870   1.347       .  A
N1862      N1863   1.326       .  A
N1862     Mn1866   2.217       .  S
N1863      C1870   1.357       .  A
N1864      N1865   1.329       .  A
N1865      C1869   1.362       .  A
Mn1867    Cl1868   2.555       .  S
C1869      C2170   1.487       .  S
C1870      C2141   1.472       .  S
N1871      N1872   1.325       .  A
N1871      N1877   1.316       .  A
N1872      C1879   1.355       .  A
N1873      N1875   1.316       .  A
N1873      N1874   1.317       .  A
N1873     Mn1889   2.190       .  S
N1874      C1880   1.347       .  A
N1875      N1876   1.323       .  A
N1875     Mn1900   2.209       .  S
N1876      C1880   1.353       .  A
N1877      N1878   1.317       .  A
N1878      C1879   1.347       .  A
C1879      C2127   1.437       .  S
C1880      C2125   1.433       .  S
N1881      N1887   1.316       .  A
N1881      N1882   1.323       .  A
N1881     Mn1911   2.213       .  S
N1882      C1890   1.353       .  A
N1883      N1884   1.318       .  A
N1883      N1885   1.315       .  A
N1884      C1891   1.348       .  A
N1885      N1886   1.323       .  A
N1886      C1891   1.353       .  A
N1887      N1888   1.319       .  A
N1887     Mn1889   2.198       .  S
N1888      C1890   1.349       .  A
Mn1889    Cl1913   2.531       .  S
C1890      C2121   1.437       .  S
C1891      C2124   1.434       .  S
N1892      N1893   1.324       .  A
N1892      N1898   1.316       .  A
N1892     Mn1900   2.219   1_554  S
N1893      C1901   1.354       .  A
N1894      N1896   1.316       .  A
N1894      N1895   1.318       .  A
N1895      C1902   1.348       .  A
N1896      N1897   1.325       .  A
N1897      C1902   1.355       .  A
N1898      N1899   1.318       .  A
N1898     Mn1912   2.191       .  S
N1899      C1901   1.348       .  A
Mn1900    Cl1913   2.565       .  S
C1901      C2114   1.437       .  S
C1902      C2115   1.439       .  S
N1903      N1904   1.325       .  A
N1903      N1909   1.316       .  A
N1904      C1914   1.356       .  A
N1905      N1906   1.319       .  A
N1905      N1907   1.316       .  A
N1905     Mn1912   2.195       .  S
N1906      C1915   1.349       .  A
N1907      N1908   1.323       .  A
N1907     Mn1911   2.205   1_554  S
N1908      C1915   1.352       .  A
N1909      N1910   1.317       .  A
N1910      C1914   1.346       .  A
Mn1911    Cl1913   2.563       .  S
Mn1912    Cl1913   2.531   1_554  S
C1914      C2119   1.437       .  S
C1915      C2117   1.435       .  S
N1916      C1921   1.354       .  A
N1916      C1920   1.353       .  A
N1916      H1948   1.042       .  S
N1917      C1924   1.350       .  A
N1917      C1925   1.349       .  A
N1918      C1923   1.353       .  A
N1918      C1922   1.352       .  A
N1918      H1949   1.041       .  S
N1919      C1926   1.352       .  A
N1919      C1927   1.352       .  A
C1920      C1928   1.387       .  A
C1920      C1936   1.412       .  A
C1921      C1937   1.414       .  A
C1921      C1929   1.386       .  A
C1922      C1930   1.388       .  A
C1922      C1939   1.413       .  A
C1923      C1938   1.415       .  A
C1923      C1931   1.387       .  A
C1924      C1936   1.409       .  A
C1924      C1932   1.386       .  A
C1925      C1939   1.409       .  A
C1925      C1933   1.387       .  A
C1926      C1934   1.387       .  A
C1926      C1937   1.412       .  A
C1927      C1935   1.387       .  A
C1927      C1938   1.412       .  A
C1928      C1929   1.375       .  A
C1928      H1940   1.082       .  S
C1929      H1941   1.082       .  S
C1930      C1931   1.376       .  A
C1930      H1942   1.082       .  S
C1931      H1943   1.082       .  S
C1932      C1933   1.376       .  A
C1932      H1944   1.082       .  S
C1933      H1945   1.082       .  S
C1934      C1935   1.373       .  A
C1934      H1946   1.082       .  S
C1935      H1947   1.082       .  S
C1936      C2122   1.450       .  S
C1937      C2106   1.494       .  S
C1938      C2109   1.492       .  S
C1939      C2123   1.448       .  S
N1950      C1955   1.351       .  A
N1950      C1954   1.353       .  A
N1950      H1982   1.040       .  S
N1951      C1958   1.351       .  A
N1951      C1959   1.351       .  A
N1952      C1957   1.353       .  A
N1952      C1956   1.351       .  A
N1952      H1983   1.040       .  S
N1953      C1960   1.350       .  A
N1953      C1961   1.352       .  A
C1954      C1962   1.387       .  A
C1954      C1970   1.411       .  A
C1955      C1971   1.411       .  A
C1955      C1963   1.388       .  A
C1956      C1964   1.387       .  A
C1956      C1973   1.411       .  A
C1957      C1972   1.412       .  A
C1957      C1965   1.387       .  A
C1958      C1970   1.409       .  A
C1958      C1966   1.384       .  A
C1959      C1973   1.417       .  A
C1959      C1967   1.389       .  A
C1960      C1968   1.385       .  A
C1960      C1971   1.409       .  A
C1961      C1969   1.388       .  A
C1961      C1972   1.416       .  A
C1962      C1963   1.378       .  A
C1962      H1974   1.082       .  S
C1963      H1975   1.082       .  S
C1964      C1965   1.375       .  A
C1964      H1976   1.083       .  S
C1965      H1977   1.082       .  S
C1966      C1967   1.374       .  A
C1966      H1978   1.082       .  S
C1967      H1979   1.081       .  S
C1968      C1969   1.374       .  A
C1968      H1980   1.082       .  S
C1969      H1981   1.081       .  S
C1970      C2128   1.451       .  S
C1971      C2126   1.446       .  S
C1972      C2098   1.493       .  S
C1973      C2101   1.487       .  S
N1984      N1985   1.325       .  A
N1984      N1990   1.314       .  A
N1984     Mn2013   2.221   1_565  S
N1985      C1992   1.357       .  A
N1986      N1988   1.315       .  A
N1986      N1987   1.315       .  A
N1987      C1993   1.344       .  A
N1988      N1989   1.327       .  A
N1989      C1993   1.360       .  A
N1990      N1991   1.317       .  A
N1990     Mn2002   2.180       .  S
N1991      C1992   1.350       .  A
C1992      C2150   1.478       .  S
C1993      C2146   1.471       .  S
N1994      N2000   1.314       .  A
N1994      N1995   1.322       .  A
N1995      C2003   1.352       .  A
N1996      N1997   1.316       .  A
N1996      N1998   1.314       .  A
N1997      C2004   1.349       .  A
N1998      N1999   1.326       .  A
N1998     Mn2024   2.229   1_565  S
N1999      C2004   1.358       .  A
N2000      N2001   1.318       .  A
N2001      C2003   1.352       .  A
Mn2002    Cl2026   2.532   1_565  S
C2003      C2154   1.472       .  S
C2004      C2158   1.479       .  S
N2005      N2006   1.320       .  A
N2005      N2011   1.316       .  A
N2006      C2014   1.355       .  A
N2007      N2009   1.316       .  A
N2007      N2008   1.321       .  A
N2007     Mn2025   2.210   1_565  S
N2008      C2015   1.353       .  A
N2009      N2010   1.319       .  A
N2009     Mn2013   2.194   1_565  S
N2010      C2015   1.353       .  A
N2011      N2012   1.320       .  A
N2012      C2014   1.352       .  A
Mn2013    Cl2026   2.554       .  S
C2014      C2097   1.476       .  S
C2015      C2105   1.474       .  S
N2016      N2017   1.320       .  A
N2016      N2022   1.317       .  A
N2016     Mn2024   2.200   1_565  S
N2017      C2027   1.354       .  A
N2018      N2019   1.320       .  A
N2018      N2020   1.315       .  A
N2019      C2028   1.351       .  A
N2020      N2021   1.319       .  A
N2021      C2028   1.355       .  A
N2022      N2023   1.320       .  A
N2023      C2027   1.352       .  A
Mn2025    Cl2026   2.530       .  S
C2027      C2110   1.472       .  S
C2028      C2102   1.471       .  S
N2029      C2034   1.357       .  A
N2029      C2033   1.358       .  A
N2029      H2061   1.041       .  S
N2030      C2037   1.352       .  A
N2030      C2038   1.351       .  A
N2031      C2036   1.352       .  A
N2031      C2035   1.352       .  A
N2031      H2062   1.039       .  S
N2032      C2039   1.352       .  A
N2032      C2040   1.351       .  A
C2033      C2041   1.389       .  A
C2033      C2049   1.424       .  A
C2034      C2050   1.422       .  A
C2034      C2042   1.388       .  A
C2035      C2043   1.387       .  A
C2035      C2052   1.413       .  A
C2036      C2051   1.412       .  A
C2036      C2044   1.387       .  A
C2037      C2049   1.415       .  A
C2037      C2045   1.386       .  A
C2038      C2052   1.411       .  A
C2038      C2046   1.386       .  A
C2039      C2047   1.387       .  A
C2039      C2050   1.414       .  A
C2040      C2048   1.386       .  A
C2040      C2051   1.411       .  A
C2041      C2042   1.376       .  A
C2041      H2053   1.082       .  S
C2042      H2054   1.082       .  S
C2043      C2044   1.381       .  A
C2043      H2055   1.082       .  S
C2044      H2056   1.082       .  S
C2045      C2046   1.375       .  A
C2045      H2057   1.082       .  S
C2046      H2058   1.082       .  S
C2047      C2048   1.374       .  A
C2047      H2059   1.082       .  S
C2048      H2060   1.082       .  S
C2049      C2138   1.505       .  S
C2050      C2142   1.502       .  S
C2051      C2113   1.451       .  S
C2052      C2116   1.453       .  S
N2063      C2068   1.360       .  A
N2063      C2067   1.361       .  A
N2063      H2095   1.040       .  S
N2064      C2071   1.353       .  A
N2064      C2072   1.352       .  A
N2065      C2070   1.351       .  A
N2065      C2069   1.352       .  A
N2065      H2096   1.038       .  S
N2066      C2073   1.353       .  A
N2066      C2074   1.353       .  A
C2067      C2075   1.388       .  A
C2067      C2083   1.429       .  A
C2068      C2084   1.428       .  A
C2068      C2076   1.389       .  A
C2069      C2077   1.387       .  A
C2069      C2086   1.411       .  A
C2070      C2085   1.411       .  A
C2070      C2078   1.387       .  A
C2071      C2083   1.416       .  A
C2071      C2079   1.386       .  A
C2072      C2086   1.411       .  A
C2072      C2080   1.385       .  A
C2073      C2081   1.389       .  A
C2073      C2084   1.418       .  A
C2074      C2082   1.385       .  A
C2074      C2085   1.413       .  A
C2075      C2076   1.375       .  A
C2075      H2087   1.082       .  S
C2076      H2088   1.081       .  S
C2077      C2078   1.378       .  A
C2077      H2089   1.082       .  S
C2078      H2090   1.083       .  S
C2079      C2080   1.375       .  A
C2079      H2091   1.081       .  S
C2080      H2092   1.082       .  S
C2081      C2082   1.369       .  A
C2081      H2093   1.079       .  S
C2082      H2094   1.082       .  S
C2083      C2130   1.512       .  S
C2084      C2133   1.498       .  S
C2085      C2118   1.450       .  S
C2086      C2120   1.451       .  S
C2097      C2098   1.345       .  D
C2097      H2099   1.086       .  S
C2098      H2100   1.087       .  S
C2101      C2102   1.342       .  D
C2101      H2103   1.087       .  S
C2102      H2104   1.086       .  S
C2105      C2106   1.345       .  D
C2105      H2107   1.086       .  S
C2106      H2108   1.087       .  S
C2109      C2110   1.344       .  D
C2109      H2111   1.087       .  S
C2110      H2112   1.086       .  S
C2113      C2114   1.207       .  T
C2115      C2116   1.208       .  T
C2117      C2118   1.206       .  T
C2119      C2120   1.207       .  T
C2121      C2122   1.207       .  T
C2123      C2124   1.205       .  T
C2125      C2126   1.204       .  T
C2127      C2128   1.207       .  T
C2129      C2130   1.356       .  D
C2129      H2131   1.082       .  S
C2130      H2132   1.086       .  S
C2133      C2134   1.352       .  D
C2133      H2135   1.086       .  S
C2134      H2136   1.086       .  S
C2137      C2138   1.351       .  D
C2137      H2139   1.083       .  S
C2138      H2140   1.087       .  S
C2141      C2142   1.349       .  D
C2141      H2143   1.083       .  S
C2142      H2144   1.087       .  S
C2145      C2146   1.340       .  D
C2145      H2147   1.086       .  S
C2146      H2148   1.088       .  S
C2149      C2150   1.345       .  D
C2149      H2151   1.087       .  S
C2150      H2152   1.086       .  S
C2153      C2154   1.341       .  D
C2153      H2155   1.087       .  S
C2154      H2156   1.086       .  S
C2157      C2158   1.347       .  D
C2157      H2159   1.087       .  S
C2158      H2160   1.086       .  S
C2161      C2162   1.205       .  T
C2163      C2164   1.206       .  T
C2165      C2166   1.206       .  T
C2167      C2168   1.204       .  T
C2169      C2170   1.354       .  D
C2169      H2171   1.087       .  S
C2170      H2172   1.086       .  S
C2173      C2174   1.353       .  D
C2173      H2175   1.087       .  S
C2174      H2176   1.086       .  S
C2177      C2178   1.205       .  T
C2179      C2180   1.208       .  T
C2181      C2182   1.353       .  D
C2181      H2183   1.086       .  S
C2182      H2184   1.086       .  S
C2185      C2186   1.351       .  D
C2185      H2187   1.083       .  S
C2186      H2188   1.087       .  S
C2189      C2190   1.208       .  T
C2191      C2192   1.209       .  T
