geometry optimzed in LAMMPS
_audit_creation_date              2020-11-30 
_audit_creation_method            'lammps2cif' 
_symmetry_space_group_name_H-M    'P1' 
_symmetry_Int_Tables_number       1 
_symmetry_cell_setting            triclinic 
loop_ 
_symmetry_equiv_pos_as_xyz 
  x,y,z 
_cell_length_a                    33.84713954 
_cell_length_b                    34.70908202408782 
_cell_length_c                    63.36992293589521 
_cell_angle_alpha                 90.58807771373033 
_cell_angle_beta                  89.23905591451806 
_cell_angle_gamma                 90.64119860503048 
loop_ 
_atom_site_label 
_atom_site_type_symbol 
_atom_site_fract_x 
_atom_site_fract_y 
_atom_site_fract_z 
_atom_site_charge 
N1          N  0.44412233  0.25045137  0.41117978    -0.36500
N2          N  0.43157593  0.31114535  0.38241789    -0.57000
N3          N  0.44326450  0.25744123  0.34657152    -0.36500
N4          N  0.45932303  0.19688066  0.37658556    -0.57000
C5          C  0.44649310  0.28038092  0.42489039     0.27100
C6          C  0.45298450  0.21850467  0.42176309     0.27100
C7          C  0.44428225  0.29226542  0.33690093     0.27100
C8          C  0.46147294  0.23126340  0.33369912     0.27100
C9          C  0.42023181  0.32878371  0.40064269     0.35700
C10         C  0.41493318  0.33055072  0.36653528     0.35700
C11         C  0.45408642  0.17134863  0.39241435     0.35700
C12         C  0.46340128  0.17580498  0.35866018     0.35700
C13         C  0.45850228  0.26722522  0.44438086    -0.21700
C14         C  0.46160985  0.22779903  0.44251325    -0.21700
C15         C  0.46331374  0.28802443  0.31748820    -0.21700
C16         C  0.47335867  0.24957244  0.31529970    -0.21700
C17         C  0.39676483  0.35993423  0.39635855    -0.22800
C18         C  0.39245580  0.36051905  0.37484282    -0.22800
C19         C  0.45678704  0.13404834  0.38480673    -0.22800
C20         C  0.46385860  0.13680056  0.36353851    -0.22800
C21         C  0.43146070  0.31739321  0.42107999    -0.18100
C22         C  0.44715509  0.18117116  0.41375289    -0.18100
C23         C  0.46621629  0.19112831  0.33795759    -0.18100
C24         C  0.42715514  0.32713008  0.34505597    -0.18100
H25         H  0.46176112  0.28380427  0.45882080     0.14800
H26         H  0.46820031  0.20812750  0.45509672     0.14800
H27         H  0.46948458  0.31024763  0.30604037     0.14800
H28         H  0.48839358  0.23681066  0.30182453     0.14800
H29         H  0.38473229  0.38041789  0.40755976     0.13000
H30         H  0.37679417  0.38214651  0.36616725     0.13000
H31         H  0.45468598  0.10766656  0.39373185     0.13000
H32         H  0.46812685  0.11249625  0.35299386     0.13000
H33         H  0.43000706  0.25001532  0.39669573     0.26300
H34         H  0.42766388  0.25124323  0.36043099     0.26300
N35         N  0.15566045  0.23510197  0.36290785    -0.36500
N36         N  0.18103124  0.17579484  0.39287390    -0.57000
N37         N  0.19717628  0.23306707  0.42433901    -0.36500
N38         N  0.17444807  0.29305836  0.39355133    -0.57000
C39         C  0.15828773  0.20432384  0.34967024     0.27100
C40         C  0.14955570  0.26686018  0.35108280     0.27100
C41         C  0.21408254  0.20173487  0.43296956     0.27100
C42         C  0.21620740  0.26459024  0.43194397     0.27100
C43         C  0.16769003  0.15320793  0.37695459     0.35700
C44         C  0.18314971  0.15289174  0.41002497     0.35700
C45         C  0.15592793  0.31609032  0.37971771     0.35700
C46         C  0.18296847  0.31506244  0.41063933     0.35700
C47         C  0.15295398  0.21656231  0.32912835    -0.21700
C48         C  0.14742263  0.25593356  0.33002527    -0.21700
C49         C  0.24389670  0.21342701  0.44641513    -0.21700
C50         C  0.24535896  0.25311856  0.44572289    -0.21700
C51         C  0.16194233  0.11575586  0.38411978    -0.22800
C52         C  0.17053499  0.11591378  0.40508207    -0.22800
C53         C  0.15270774  0.35294743  0.38811946    -0.22800
C54         C  0.16987370  0.35232663  0.40764252    -0.22800
C55         C  0.16158557  0.16520100  0.35585774    -0.18100
C56         C  0.14494198  0.30518024  0.35892241    -0.18100
C57         C  0.20640359  0.30339785  0.42777707    -0.18100
C58         C  0.20292063  0.16301365  0.42882310    -0.18100
H59         H  0.15222452  0.19887356  0.31497850     0.14800
H60         H  0.14221363  0.27434733  0.31668991     0.14800
H61         H  0.26275074  0.19526852  0.45562849     0.14800
H62         H  0.26535713  0.27147547  0.45455733     0.14800
H63         H  0.15296237  0.09039482  0.37530816     0.13000
H64         H  0.16972616  0.09101881  0.41523500     0.13000
H65         H  0.14022829  0.37793894  0.38073738     0.13000
H66         H  0.17319159  0.37678301  0.41823282     0.13000
H67         H  0.15378087  0.23370122  0.37920977     0.26300
H68         H  0.17177125  0.23314304  0.41526133     0.26300
O69         O  0.36108969  0.42668799  0.49298664    -0.80000
O70         O  0.37304851  0.08239879  0.51677333    -0.80000
O71         O  0.38783937  0.03940682  0.47259140    -0.80000
O72         O  0.38858399  0.46946600  0.53648636    -0.80000
O73         O  0.34242923  0.08140897  0.48118060    -0.80100
O74         O  0.34012584  0.42870622  0.53045480    -0.80000
O75         O  0.40815313  0.04065939  0.53233418    -0.80000
O76         O  0.39448030  0.46817961  0.47526360    -0.80000
C77         C  0.39019775  0.43434904  0.48112814     1.09700
C78         C  0.40352530  0.07447918  0.52685510     1.09600
C79         C  0.37440075  0.07299594  0.47142434     1.09700
C80         C  0.37493591  0.43537216  0.53675941     1.09600
O81         O  0.27048545  0.47365232  0.52465407    -0.80000
O82         O  0.27357382  0.03640123  0.49485533    -0.80100
O83         O  0.30754171  0.44893633  0.47023236    -0.80000
O84         O  0.32460461  0.06201769  0.54491018    -0.80000
O85         O  0.29865380  0.09709623  0.51884866    -0.80000
O86         O  0.28548408  0.41397742  0.49768253    -0.80000
O87         O  0.31010152  0.48490699  0.55079930    -0.80000
O88         O  0.30552329  0.02503954  0.46556423    -0.80000
Co89       Co  0.31568324  0.45627728  0.50656582     1.51500
Co90       Co  0.32385184  0.05406308  0.50765264     1.51700
Co91       Co  0.35219529  0.99423659  0.47381178     1.51600
Co92       Co  0.35988104  0.01162039  0.53855042     1.51500
O93         O  0.34800285  0.00275640  0.50648665    -1.41900
C94         C  0.27757593  0.47146674  0.54426048     1.09600
C95         C  0.27536436  0.03836853  0.47491638     1.09700
C96         C  0.28667005  0.42016494  0.47785508     1.09700
C97         C  0.30384413  0.09149870  0.53844868     1.09600
N98         N  0.47144933  0.25881048  0.58888082    -0.36500
N99         N  0.47457635  0.31803116  0.62043763    -0.57000
N100        N  0.47939203  0.25899579  0.65247634    -0.36500
N101        N  0.47742586  0.19964299  0.61972205    -0.57000
C102        C  0.47710156  0.29020385  0.57685465     0.27100
C103        C  0.47836229  0.22778846  0.57652314     0.27100
C104        C  0.49125264  0.29104266  0.66313352     0.27100
C105        C  0.49338658  0.22810205  0.66276563     0.27100
C106        C  0.46043483  0.33833575  0.60421676     0.35700
C107        C  0.46673878  0.33876222  0.63804838     0.35700
C108        C  0.46410880  0.17836206  0.60328264     0.35700
C109        C  0.47174207  0.17824488  0.63716296     0.35700
C110        C  0.48882563  0.27919722  0.55666582    -0.21700
C111        C  0.49004359  0.23951002  0.55650839    -0.21700
C112        C  0.02512979  0.27599568  0.67482527    -0.21700
C113        C  0.02306510  0.23634013  0.67485940    -0.21700
C114        C  0.44355049  0.37224826  0.61155771    -0.22800
C115        C  0.44819328  0.37279534  0.63305938    -0.22800
C116        C  0.44984390  0.14308514  0.61031765    -0.22800
C117        C  0.45487311  0.14295461  0.63186656    -0.22800
C118        C  0.46469451  0.32722977  0.58284990    -0.18100
C119        C  0.46693521  0.19011683  0.58200357    -0.18100
C120        C  0.48588716  0.18897956  0.65721799    -0.18100
C121        C  0.48058632  0.32917932  0.65810870    -0.18100
H122        H  0.49359554  0.29769526  0.54320284     0.14800
H123        H  0.49575610  0.22131760  0.54285548     0.14800
H124        H  0.03908453  0.29409978  0.68665206     0.14800
H125        H  0.03456593  0.21794977  0.68680477     0.14800
H126        H  0.43025413  0.39466992  0.60237235     0.13000
H127        H  0.43928424  0.39564888  0.64379346     0.13000
H128        H  0.43777254  0.11968604  0.60091106     0.13000
H129        H  0.44777132  0.11940986  0.64237391     0.13000
H130        H  0.45603604  0.25831953  0.60320286     0.26300
H131        H  0.45940252  0.25813844  0.64011672     0.26300
N132        N  0.23126512  0.27561089  0.60448535    -0.36500
N133        N  0.21586385  0.33025139  0.63736208    -0.57000
N134        N  0.20371141  0.26539274  0.66704590    -0.36500
N135        N  0.22262984  0.21130243  0.63524757    -0.57000
C136        C  0.24043650  0.30918067  0.59453836     0.27100
C137        C  0.25110039  0.24679216  0.59449769     0.27100
C138        C  0.21188845  0.29562368  0.68000092     0.27100
C139        C  0.20784509  0.23252280  0.67826430     0.27100
C140        C  0.20883543  0.35279114  0.62046389     0.35700
C141        C  0.19972042  0.34800397  0.65448066     0.35700
C142        C  0.22641978  0.19234816  0.61665693     0.35700
C143        C  0.20404551  0.18684953  0.64879088     0.35700
C144        C  0.26585718  0.30130107  0.57785730    -0.21700
C145        C  0.27289956  0.26217971  0.57786222    -0.21700
C146        C  0.22259695  0.28162170  0.69956900    -0.21700
C147        C  0.22020208  0.24179412  0.69841702    -0.21700
C148        C  0.18776894  0.38494170  0.62691012    -0.22800
C149        C  0.18198568  0.38191438  0.64841480    -0.22800
C150        C  0.21035139  0.15558047  0.61830467    -0.22800
C151        C  0.19548742  0.15233247  0.63854197    -0.22800
C152        C  0.22494060  0.34624096  0.59985395    -0.18100
C153        C  0.24709981  0.20670845  0.59883450    -0.18100
C154        C  0.19821188  0.19492951  0.67063104    -0.18100
C155        C  0.20314950  0.33484730  0.67556600    -0.18100
H156        H  0.27723523  0.32150777  0.56656104     0.14800
H157        H  0.29109073  0.24670638  0.56652546     0.14800
H158        H  0.22964693  0.29846043  0.71351459     0.14800
H159        H  0.22552847  0.22199215  0.71112595     0.14800
H160        H  0.17806749  0.40838302  0.61718551     0.13000
H161        H  0.16669309  0.40249529  0.65841105     0.13000
H162        H  0.20945972  0.13342368  0.60617013     0.13000
H163        H  0.18093860  0.12708370  0.64496640     0.13000
H164        H  0.20957689  0.27191754  0.61610413     0.26300
H165        H  0.19030901  0.26726497  0.65238053     0.26300
O166        O  0.00547832  0.45559756  0.30117743    -0.80000
O167        O  0.08756254  0.49312285  0.22016911    -0.80000
O168        O  0.48321868  0.44133803  0.25415688    -0.80000
O169        O  0.10774618  0.42938397  0.28325744    -0.80000
O170        O  0.02003769  0.46041851  0.22580261    -0.80100
O171        O  0.08188146  0.45876414  0.31101053    -0.80000
O172        O  0.10409437  0.44707183  0.24116935    -0.80000
O173        O  0.46016043  0.48312819  0.28466257    -0.80000
C174        C  0.47017922  0.45993374  0.29922219     1.09700
C175        C  0.10788426  0.46322740  0.22347841     1.09600
C176        C  0.49208165  0.43389188  0.23558355     1.09700
C177        C  0.09924194  0.42988585  0.30276116     1.09600
O178        O  0.07628163  0.04299819  0.29934916    -0.80000
O179        O  0.00266212  0.03723484  0.22420003    -0.80100
O180        O  0.51384082  0.05213590  0.26996172    -0.80000
O181        O  0.12706824  0.02910579  0.25153836    -0.80000
O182        O  0.07317612  0.05820611  0.24166653    -0.80000
O183        O  0.99892029  0.03917930  0.29948930    -0.80000
O184        O  0.12991633  0.01083803  0.29397683    -0.80000
O185        O  0.46226737  0.02819521  0.23900903    -0.80000
Co186      Co  0.04300916  0.49764575  0.29993324     1.51500
Co187      Co  0.04236579  0.50841101  0.23963410     1.51700
Co188      Co  0.49687492  0.49594090  0.25971740     1.51600
Co189      Co  0.11390080  0.47769629  0.26695155     1.51500
O190        O  0.05349883  0.48504042  0.26905765    -1.41900
C191        C  0.11193464  0.03887466  0.30271369     1.09600
C192        C  0.47281915  0.02649252  0.21947311     1.09700
C193        C  0.50829612  0.05570943  0.28950819     1.09700
C194        C  0.11022173  0.05786631  0.24326143     1.09600
O195        O  0.44723094  0.23019953  0.98683479    -0.80000
O196        O  0.08834494  0.17846162  0.02879229    -0.80000
O197        O  0.07970043  0.23729728  0.96381802    -0.80000
O198        O  0.99596206  0.23035873  0.04956472    -0.80000
O199        O  0.08902144  0.18805779  0.98394040    -0.80100
O200        O  0.48208243  0.18954119  0.01757719    -0.80000
O201        O  0.07516922  0.22005223  0.05433330    -0.80000
O202        O  0.00201751  0.22168261  0.97252157    -0.80000
C203        C  0.96395747  0.21701747  0.97388416     1.09700
C204        C  0.08894573  0.18773780  0.04823844     1.09600
C205        C  0.09391628  0.20407001  0.96616373     1.09700
C206        C  0.47599060  0.19407068  0.03729514     1.09600
O207        O  0.46411295  0.26770003  0.02544322    -0.80000
O208        O  0.12875915  0.26096327  0.99068620    -0.80100
O209        O  0.02445975  0.29225560  0.95819427    -0.80000
O210        O  0.09239256  0.29591073  0.03812527    -0.80000
O211        O  0.13264691  0.24833543  0.03277243    -0.80000
O212        O  0.49292569  0.29311600  0.98848237    -0.80000
O213        O  0.01641778  0.30852648  0.03280786    -0.80000
O214        O  0.08299643  0.30533359  0.98799626    -0.80000
Co215      Co  0.49358173  0.23862533  0.00226852     1.51500
Co216      Co  0.10512091  0.21962307  0.00899978     1.51700
Co217      Co  0.04172835  0.26522145  0.98259604     1.51600
Co218      Co  0.04511747  0.26318610  0.04178094     1.51500
O219        O  0.05001568  0.24473745  0.01167837    -1.41900
C220        C  0.48038351  0.29388513  0.03639616     1.09600
C221        C  0.11892729  0.29503029  0.98594978     1.09700
C222        C  0.99396427  0.30460110  0.96769829     1.09700
C223        C  0.12587861  0.28157166  0.04047404     1.09600
N224        N  0.29593042  0.37808889  0.91992461    -0.36500
N225        N  0.23112752  0.38966292  0.89095938    -0.57000
N226        N  0.28891898  0.40479634  0.85785886    -0.36500
N227        N  0.35290926  0.39603177  0.88798192    -0.57000
C228        C  0.26524935  0.38532806  0.93319272     0.27100
C229        C  0.32962103  0.38296640  0.93096466     0.27100
C230        C  0.25469209  0.41375069  0.84828503     0.27100
C231        C  0.31886496  0.42387567  0.84785750     0.27100
C232        C  0.21195413  0.37359499  0.90763462     0.35700
C233        C  0.20875262  0.38249301  0.87377388     0.35700
C234        C  0.37613439  0.37663978  0.90134943     0.35700
C235        C  0.37264537  0.39794260  0.86938287     0.35700
C236        C  0.27968177  0.39616884  0.95280639    -0.21700
C237        C  0.32048731  0.39502716  0.95132255    -0.21700
C238        C  0.26290846  0.43884593  0.83186282    -0.21700
C239        C  0.30335825  0.44540900  0.83166999    -0.21700
C240        C  0.17716422  0.35615112  0.90103745    -0.22800
C241        C  0.17510974  0.36180531  0.87960121    -0.22800
C242        C  0.41059681  0.36550161  0.89099211    -0.22800
C243        C  0.40863166  0.37958237  0.87079823    -0.25200
C244        C  0.22531515  0.37589039  0.92874774    -0.18100
C245        C  0.36752230  0.37274288  0.92317939    -0.18100
C246        C  0.35984077  0.41923030  0.85194141    -0.18100
C247        C  0.21697840  0.39737887  0.85334838    -0.18100
H248        H  0.26252980  0.40247685  0.96693352     0.14800
H249        H  0.34098397  0.40044009  0.96400648     0.14800
H250        H  0.24201661  0.45086355  0.82102192     0.14800
H251        H  0.31957739  0.46319184  0.82053375     0.14800
H252        H  0.15557330  0.34085269  0.91060723     0.13000
H253        H  0.15145011  0.35196966  0.86949378     0.13000
H254        H  0.43508691  0.34983630  0.89736173     0.13000
H255        H  0.43118018  0.37698986  0.85861050     0.13000
H256        H  0.29394493  0.36455608  0.90520713     0.26300
H257        H  0.29194145  0.38338443  0.86907622     0.26300
N258        N  0.28692620  0.16245888  0.89985050    -0.36500
N259        N  0.23217113  0.15938970  0.86560248    -0.57000
N260        N  0.29804357  0.14439598  0.83635779    -0.36500
N261        N  0.35241426  0.15024093  0.86974877    -0.57000
C262        C  0.25345633  0.17492258  0.90952941     0.27100
C263        C  0.31794508  0.17628487  0.91096252     0.27100
C264        C  0.26945728  0.15504571  0.82303296     0.27100
C265        C  0.33270649  0.14475900  0.82545863     0.27100
C266        C  0.20729782  0.15292084  0.88210669     0.35700
C267        C  0.21302744  0.14758123  0.84809952     0.35700
C268        C  0.37072769  0.14802690  0.88841159     0.35700
C269        C  0.37549443  0.13163672  0.85550798     0.35700
C270        C  0.26320134  0.19635698  0.92732504    -0.21700
C271        C  0.30397519  0.19739593  0.92815833    -0.21700
C272        C  0.28627435  0.16285171  0.80340062    -0.21700
C273        C  0.32626874  0.15608169  0.80491051    -0.21700
C274        C  0.17221535  0.13670871  0.87513699    -0.22800
C275        C  0.17581932  0.13329348  0.85354067    -0.22800
C276        C  0.40575222  0.12807709  0.88613922    -0.22800
C277        C  0.40835198  0.11690654  0.86530817    -0.22800
C278        C  0.21459634  0.16589627  0.90288317    -0.18100
C279        C  0.35814365  0.16756900  0.90677877    -0.18100
C280        C  0.36910801  0.13222831  0.83352987    -0.18100
C281        C  0.22840564  0.15117698  0.82729806    -0.18100
H282        H  0.24308630  0.20981550  0.93851271     0.14800
H283        H  0.32130716  0.21133378  0.94029615     0.14800
H284        H  0.27098851  0.17077732  0.78921870     0.14800
H285        H  0.34795005  0.15840203  0.79226620     0.14800
H286        H  0.14646319  0.12911783  0.88458033     0.13000
H287        H  0.15348813  0.12178764  0.84309052     0.13000
H288        H  0.42727825  0.12253660  0.89818370     0.13000
H289        H  0.43249036  0.10118913  0.85810008     0.13000
H290        H  0.28831861  0.14240570  0.88755738     0.26300
H291        H  0.29327801  0.13173534  0.85099799     0.26300
O292        O  0.08998811  0.42428110  0.74040107    -0.80000
O293        O  0.07726228  0.09226901  0.77177335    -0.80000
O294        O  0.11917909  0.03316015  0.70748483    -0.80000
O295        O  0.11075472  0.46770123  0.78837181    -0.80000
O296        O  0.10776953  0.07114794  0.73498236    -0.80100
O297        O  0.06923522  0.42074067  0.78278526    -0.80000
O298        O  0.11352382  0.04657849  0.78359636    -0.80000
O299        O  0.13134470  0.47334067  0.73619596    -0.80000
C300        C  0.12376390  0.43713393  0.73496559     1.09700
C301        C  0.10963706  0.08134906  0.77942894     1.09600
C302        C  0.12483792  0.06535215  0.71676683     1.09700
C303        C  0.10004651  0.43399496  0.79187241     1.09600
O304        O  0.99396644  0.45469584  0.77186538    -0.80000
O305        O  0.03648660  0.10244568  0.73578560    -0.80100
O306        O  0.06573186  0.46954756  0.71060103    -0.80000
O307        O  0.02876265  0.05449170  0.79435841    -0.80000
O308        O  0.99983403  0.05505901  0.76361919    -0.80000
O309        O  0.01436592  0.45360591  0.72958130    -0.80000
O310        O  0.02532713  0.47205079  0.80062241    -0.80000
O311        O  0.04249396  0.04784465  0.71718990    -0.80000
Co312      Co  0.04253769  0.44245072  0.75619722     1.51500
Co313      Co  0.05221085  0.05796099  0.74949627     1.51700
Co314      Co  0.08726831  0.50994483  0.73016979     1.51600
Co315      Co  0.07072135  0.50702993  0.79014890     1.51500
O316        O  0.06233261  0.49874606  0.75874840    -1.41900
C317        C  0.99453384  0.45838533  0.79164075     1.09600
C318        C  0.03140192  0.08364023  0.71882918     1.09700
C319        C  0.03356691  0.45097835  0.71233043     1.09700
C320        C  0.99829323  0.06072688  0.78332911     1.09600
N321        N  0.28631032  0.11318288  0.17015835    -0.36500
N322        N  0.22270702  0.12058642  0.14199587    -0.57000
N323        N  0.28059049  0.13589718  0.10652888    -0.36500
N324        N  0.34376670  0.12632275  0.13440893    -0.57000
C325        C  0.25547726  0.09703174  0.18082910     0.27100
C326        C  0.31883176  0.09311158  0.17513292     0.27100
C327        C  0.24669110  0.13266517  0.09554000     0.27100
C328        C  0.31136453  0.13869585  0.09244466     0.27100
C329        C  0.20042481  0.11305522  0.15954272     0.35700
C330        C  0.19824119  0.11848068  0.12532467     0.35700
C331        C  0.36751330  0.12458967  0.15117675     0.35700
C332        C  0.36519781  0.14220217  0.11856393     0.35700
C333        C  0.26802899  0.06516919  0.19170358    -0.21700
C334        C  0.30829291  0.06320197  0.18854306    -0.21700
C335        C  0.25582366  0.13427419  0.07413170    -0.21700
C336        C  0.29639584  0.13734069  0.07219469    -0.21700
C337        C  0.16228375  0.10321902  0.15352933    -0.22800
C338        C  0.16080040  0.10732495  0.13207419    -0.22800
C339        C  0.40445154  0.13980151  0.14614900    -0.22800
C340        C  0.40274327  0.15170536  0.12553761    -0.22800
C341        C  0.21614339  0.11004599  0.18026409    -0.18100
C342        C  0.35800489  0.10333738  0.16932888    -0.18100
C343        C  0.35235790  0.14371258  0.09743874    -0.18100
C344        C  0.20768162  0.12898260  0.10421944    -0.18100
H345        H  0.24998997  0.04540921  0.20089281     0.14800
H346        H  0.32757228  0.04210738  0.19532623     0.14800
H347        H  0.23558952  0.13279080  0.06108815     0.14800
H348        H  0.31283462  0.13862978  0.05745775     0.14800
H349        H  0.13838486  0.09150397  0.16301790     0.13000
H350        H  0.13511157  0.10206741  0.12241915     0.13000
H351        H  0.43025157  0.14095829  0.15605296     0.13000
H352        H  0.42688437  0.16426882  0.11649622     0.13000
H353        H  0.28577866  0.13877571  0.16165672     0.26300
H354        H  0.28153204  0.13958003  0.12275634     0.26300
N355        N  0.30585557  0.38934103  0.16814369    -0.36500
N356        N  0.24632914  0.37789322  0.13486877    -0.57000
N357        N  0.30748421  0.35891622  0.10602515    -0.36500
N358        N  0.36699595  0.37188270  0.13842878    -0.57000
C359        C  0.27514247  0.41020354  0.17562909     0.27100
C360        C  0.33872063  0.40099504  0.17857906     0.27100
C361        C  0.27618216  0.35846794  0.09303186     0.27100
C362        C  0.34026467  0.36136136  0.09379997     0.27100
C363        C  0.22289166  0.38400472  0.15188174     0.35700
C364        C  0.22360795  0.36054061  0.12005832     0.35700
C365        C  0.38591776  0.36512723  0.15672150     0.35700
C366        C  0.38881622  0.35555822  0.12280656     0.35700
C367        C  0.28865979  0.43582517  0.19096771    -0.21700
C368        C  0.32888551  0.43012674  0.19274678    -0.21700
C369        C  0.28888832  0.36109661  0.07227624    -0.21700
C370        C  0.32937745  0.36268823  0.07270741    -0.21700
C371        C  0.18470275  0.37130848  0.14771324    -0.22800
C372        C  0.18529948  0.35597137  0.12758801    -0.22800
C373        C  0.41919114  0.34331316  0.15274073    -0.22800
C374        C  0.42221040  0.33917074  0.13129937    -0.22800
C375        C  0.23494230  0.40360908  0.17041283    -0.18100
C376        C  0.37633927  0.38350207  0.17618987    -0.18100
C377        C  0.37912016  0.35602126  0.10103941    -0.18100
C378        C  0.23696973  0.35115576  0.09945042    -0.18100
H379        H  0.27120248  0.45594670  0.20021258     0.14800
H380        H  0.34847719  0.44530154  0.20341642     0.14800
H381        H  0.27093576  0.36000075  0.05826736     0.14800
H382        H  0.34825988  0.36234222  0.05884685     0.14800
H383        H  0.15909117  0.37299453  0.15807876     0.13000
H384        H  0.16029860  0.34371206  0.11931327     0.13000
H385        H  0.44036832  0.33305876  0.16396302     0.13000
H386        H  0.44663490  0.32564732  0.12322684     0.13000
H387        H  0.30360624  0.36511871  0.15834414     0.26300
H388        H  0.30672248  0.35133777  0.12186526     0.26300
C389        C  0.13664661  0.14334836  0.79351790    -0.05600
C390        C  0.14347861  0.10706932  0.78428585     0.00300
C391        C  0.18235479  0.09179778  0.78452072    -0.08300
C392        C  0.21003427  0.10871354  0.79788842    -0.05700
C393        C  0.20178948  0.14234545  0.80932156     0.00300
C394        C  0.16604860  0.16206198  0.80555788    -0.08200
C395        C  0.15726596  0.20180768  0.81438527     0.62200
H396        H  0.10754768  0.15591226  0.79259797     0.12900
H397        H  0.23774654  0.09411826  0.80036380     0.12900
C398        C  0.19484145  0.05525378  0.77294533     0.62400
F399        F  0.14646439  0.22551674  0.79806408    -0.22700
F400        F  0.18954034  0.21860901  0.82414513    -0.20100
F401        F  0.12633313  0.19946016  0.82879965    -0.19700
F402        F  0.23318232  0.05932586  0.76534405    -0.19800
F403        F  0.17121040  0.04717132  0.75587814    -0.20100
F404        F  0.19329965  0.02455118  0.78669324    -0.22800
C405        C  0.39251083  0.08598528  0.80609476    -0.05600
C406        C  0.40093152  0.11836560  0.81874718     0.00300
C407        C  0.44004668  0.13349751  0.81872319    -0.08300
C408        C  0.47006780  0.11258119  0.80841063    -0.05700
C409        C  0.46209851  0.07915137  0.79642647     0.00300
C410        C  0.42203184  0.06651533  0.79444808    -0.08200
C411        C  0.40769464  0.03265793  0.78112474     0.62200
H412        H  0.36238652  0.07499339  0.80578141     0.12900
H413        H  0.00135888  0.12403891  0.80602915     0.12900
C414        C  0.45175380  0.17146065  0.82914284     0.62400
F415        F  0.38811447  0.00639928  0.79392086    -0.22700
F416        F  0.43732291  0.01360330  0.77047359    -0.20100
F417        F  0.38145780  0.04585011  0.76636057    -0.19700
F418        F  0.47506556  0.16442617  0.84641286    -0.19800
F419        F  0.41956418  0.19294714  0.83559354    -0.20100
F420        F  0.96927024  0.19386123  0.81258457    -0.22800
C421        C  0.14936931  0.41869335  0.84397422    -0.05600
C422        C  0.18382075  0.39925944  0.83768145     0.00300
C423        C  0.18607509  0.38421040  0.81670231    -0.08300
C424        C  0.15604023  0.39313590  0.80231109    -0.05700
C425        C  0.12239983  0.41389297  0.80845597     0.00300
C426        C  0.11839542  0.42561362  0.82993247    -0.08200
C427        C  0.08234489  0.44725670  0.83787394     0.62200
H428        H  0.14762092  0.43001075  0.85994405     0.12900
H429        H  0.15986390  0.38516969  0.78584853     0.12900
C430        C  0.21957250  0.35941126  0.80842936     0.62400
F431        F  0.08085872  0.94592223  0.86042673    -0.22700
F432        F  0.04852646  0.42686251  0.83255227    -0.20100
F433        F  0.08028931  0.98293151  0.83169592    -0.19700
F434        F  0.24322889  0.34581953  0.82424759    -0.19800
F435        F  0.24256891  0.38057453  0.79445074    -0.20100
F436        F  0.20408275  0.32771744  0.79785548    -0.22800
C437        C  0.39365286  0.41722184  0.81674990    -0.05600
C438        C  0.39070811  0.43439950  0.83679237     0.00300
C439        C  0.41843087  0.46363444  0.84247089    -0.08300
C440        C  0.44921733  0.47329523  0.82812266    -0.05700
C441        C  0.45313273  0.45519909  0.80823955     0.00300
C442        C  0.42410679  0.42706825  0.80225834    -0.08200
C443        C  0.42534367  0.40640661  0.78098285     0.62200
H444        H  0.37203344  0.39520951  0.81273193     0.12900
H445        H  0.47084813  0.49509244  0.83245628     0.12900
C446        C  0.41534874  0.48498803  0.86349273     0.62400
F447        F  0.39648333  0.37795636  0.77946978    -0.22700
F448        F  0.46159200  0.38902072  0.77798213    -0.20100
F449        F  0.41904963  0.43244454  0.76503205    -0.19700
F450        F  0.42331188  0.46053052  0.87990851    -0.19800
F451        F  0.37770625  0.49950877  0.86617362    -0.20100
F452        F  0.44193714  0.51548369  0.86461676    -0.22800
C453        C  0.12437424  0.18789495  0.08207853    -0.05600
C454        C  0.11375101  0.16677378  0.06380937     0.00300
C455        C  0.13130487  0.13015698  0.06031116    -0.08300
C456        C  0.16087918  0.11786875  0.07424026    -0.05700
C457        C  0.17391732  0.14128407  0.09103607     0.00300
C458        C  0.15467636  0.17655384  0.09537494    -0.08200
C459        C  0.16497042  0.20249982  0.11416539     0.62200
H460        H  0.11001942  0.21492926  0.08563286     0.12900
H461        H  0.17527111  0.09048278  0.07165303     0.12900
C462        C  0.11974158  0.10426952  0.04198009     0.62400
F463        F  0.15407317  0.24023872  0.11073218    -0.22700
F464        F  0.20505255  0.20287591  0.11801809    -0.20100
F465        F  0.14506580  0.18960765  0.13195585    -0.19700
F466        F  0.13478377  0.11929757  0.02345624    -0.19800
F467        F  0.07903096  0.10136903  0.04085201    -0.20100
F468        F  0.13444722  0.06745350  0.04405099    -0.22800
C469        C  0.37717565  0.18421505  0.06773487    -0.05600
C470        C  0.38276665  0.15180366  0.08010836     0.00300
C471        C  0.41747138  0.12961216  0.07610175    -0.08300
C472        C  0.44692744  0.14357714  0.06174273    -0.05700
C473        C  0.44081558  0.17582875  0.04891928     0.00300
C474        C  0.40318318  0.19433896  0.05114869    -0.08200
C475        C  0.38676696  0.22299222  0.03595100     0.62200
H476        H  0.35075349  0.20108543  0.07044592     0.12900
H477        H  0.47481323  0.12865292  0.06031273     0.12900
C478        C  0.42486039  0.09105618  0.08630293     0.62400
F479        F  0.34731759  0.21477224  0.03213480    -0.22700
F480        F  0.40572699  0.22078979  0.01696745    -0.20100
F481        F  0.38968560  0.25988226  0.04415475    -0.19700
F482        F  0.39184170  0.07629996  0.09657825    -0.19800
F483        F  0.45524307  0.09494049  0.10056211    -0.20100
F484        F  0.43578483  0.06456621  0.07090859    -0.22800
C485        C  0.18463447  0.27855664  0.06349946    -0.05600
C486        C  0.15559515  0.30142188  0.05423940     0.00300
C487        C  0.15470414  0.34157029  0.05930584    -0.08300
C488        C  0.18142928  0.35652962  0.07428176    -0.05700
C489        C  0.20946221  0.33327960  0.08382597     0.00300
C490        C  0.21201505  0.29387128  0.07794927    -0.08200
C491        C  0.24357227  0.26801057  0.08688464     0.62200
H492        H  0.18559964  0.24818973  0.05948294     0.12900
H493        H  0.18075947  0.38673030  0.07872784     0.12900
C494        C  0.12652109  0.36904881  0.04881904     0.62400
F495        F  0.23758037  0.22977106  0.08127392    -0.22700
F496        F  0.24343907  0.27072192  0.10867456    -0.20100
F497        F  0.28035240  0.27894832  0.07921897    -0.19700
F498        F  0.08828734  0.36220196  0.05589903    -0.19800
F499        F  0.12859113  0.36423048  0.02712754    -0.20100
F500        F  0.13578216  0.40718605  0.05333398    -0.22800
C501        C  0.42182046  0.30568893  0.08636883    -0.05600
C502        C  0.40902015  0.34368823  0.08514716     0.00300
C503        C  0.42387610  0.36753734  0.06862771    -0.08300
C504        C  0.44641724  0.35024904  0.05235827    -0.05700
C505        C  0.45983083  0.31248172  0.05432477     0.00300
C506        C  0.45268946  0.29300955  0.07359010    -0.08200
C507        C  0.98377373  0.28625932  0.08352651     0.62200
H508        H  0.41144656  0.28754085  0.09917975     0.12900
H509        H  0.45467015  0.36665176  0.03848066     0.12900
C510        C  0.41722235  0.41057683  0.06737191     0.62400
F511        F  0.99128409  0.30190307  0.10326468    -0.22700
F512        F  0.01974753  0.28474012  0.07316018    -0.20100
F513        F  0.46602346  0.22881563  0.08397109    -0.19700
F514        F  0.39582986  0.42506667  0.08433369    -0.19800
F515        F  0.39746511  0.41878579  0.04901974    -0.20100
F516        F  0.45351258  0.42930002  0.06691997    -0.22800
C517        C  0.21314688  0.32972250  0.95765193    -0.05600
C518        C  0.19930654  0.36130669  0.94642509     0.00300
C519        C  0.16076832  0.37506639  0.95111327    -0.08300
C520        C  0.13585507  0.35349289  0.96468870    -0.05700
C521        C  0.14890546  0.32020650  0.97493063     0.00300
C522        C  0.18945537  0.30969882  0.97235126    -0.08200
C523        C  0.20845328  0.27707955  0.98437255     0.62200
H524        H  0.24269042  0.31963630  0.95409784     0.12900
H525        H  0.10556645  0.36261848  0.96699116     0.12900
C526        C  0.14441509  0.41192363  0.94222414     0.62400
F527        F  0.19570903  0.24180428  0.97651592    -0.22700
F528        F  0.19913771  0.28017617  0.00563879    -0.20100
F529        F  0.24927776  0.27816601  0.98253440    -0.19700
F530        F  0.11563322  0.40299109  0.92763107    -0.19800
F531        F  0.17325213  0.43456409  0.93271761    -0.20100
F532        F  0.12748717  0.43346558  0.95839999    -0.22800
C533        C  0.42539395  0.31027523  0.96134986    -0.05600
C534        C  0.46379574  0.32548673  0.95921385     0.00300
C535        C  0.46947130  0.35952156  0.94747300    -0.08300
C536        C  0.43655128  0.37597176  0.93748793    -0.05700
C537        C  0.39877560  0.35812512  0.93777914     0.00300
C538        C  0.39312070  0.32450753  0.95019372    -0.08200
C539        C  0.35420175  0.30195423  0.95125280     0.62200
H540        H  0.42082968  0.28573898  0.97129883     0.12900
H541        H  0.44051812  0.40199299  0.92838427     0.12900
C542        C  0.00746542  0.38226330  0.94690600     0.62400
F543        F  0.35908228  0.26577674  0.95979366    -0.22700
F544        F  0.33884708  0.29678586  0.93131287    -0.20100
F545        F  0.32725602  0.32105586  0.96394421    -0.19700
F546        F  0.03640093  0.36045876  0.93706972    -0.19800
F547        F  0.01753260  0.38860631  0.96774475    -0.20100
F548        F  0.00618918  0.41755471  0.93696429    -0.22800
C549        C  0.12595507  0.21187659  0.93083235    -0.05600
C550        C  0.12104199  0.18875751  0.94894745     0.00300
C551        C  0.14549407  0.15578591  0.95072321    -0.08300
C552        C  0.17448543  0.14845254  0.93489957    -0.05700
C553        C  0.18042579  0.17303732  0.91766081     0.00300
C554        C  0.15557592  0.20520863  0.91546649    -0.08200
C555        C  0.16139793  0.23359537  0.89749568     0.62200
H556        H  0.10725999  0.23667304  0.92907371     0.12900
H557        H  0.19401794  0.12413038  0.93625461     0.12900
C558        C  0.14286242  0.12943558  0.96959511     0.62400
F559        F  0.13709981  0.26521779  0.89972059    -0.22700
F560        F  0.15276327  0.21598502  0.87845152    -0.20100
F561        F  0.20007812  0.24686817  0.89697617    -0.19700
F562        F  0.16695921  0.09765645  0.96724087    -0.19800
F563        F  0.10446853  0.11611928  0.97231138    -0.20100
F564        F  0.15479427  0.14961695  0.98734000    -0.22800
C565        C  0.43969417  0.22212896  0.93549573    -0.05600
C566        C  0.44327219  0.19965004  0.95358571     0.00300
C567        C  0.42134126  0.16496876  0.95552184    -0.08300
C568        C  0.39394665  0.15523740  0.93981291    -0.05700
C569        C  0.38861058  0.17894551  0.92233997     0.00300
C570        C  0.41257024  0.21235136  0.91967605    -0.08200
C571        C  0.40899633  0.23785982  0.90045877     0.62200
H572        H  0.45732127  0.24825896  0.93425766     0.12900
H573        H  0.37602988  0.12930158  0.94115321     0.12900
C574        C  0.42733399  0.13831206  0.97395424     0.62400
F575        F  0.43333391  0.27011330  0.90175549    -0.22700
F576        F  0.37051838  0.25019213  0.89862856    -0.20100
F577        F  0.41957796  0.21745652  0.88245524    -0.19700
F578        F  0.41389603  0.15558213  0.99236755    -0.19800
F579        F  0.46710572  0.13038027  0.97577706    -0.20100
F580        F  0.40716853  0.10370278  0.97133512    -0.22800
C581        C  0.43048935  0.39539632  0.22932242    -0.05600
C582        C  0.46862166  0.40638291  0.22235433     0.00300
C583        C  0.47795378  0.40124749  0.20075761    -0.08300
C584        C  0.44694524  0.39722685  0.18642972    -0.05700
C585        C  0.40790940  0.38796541  0.19295553     0.00300
C586        C  0.40099249  0.38308310  0.21505643    -0.08200
C587        C  0.36399629  0.36477139  0.22453888     0.62200
H588        H  0.42328389  0.39704977  0.24600959     0.12900
H589        H  0.45398329  0.40083781  0.16985606     0.12900
C590        C  0.01715255  0.41833757  0.18675047     0.62400
F591        F  0.37471147  0.33766729  0.23920603    -0.22700
F592        F  0.34110469  0.34595056  0.20969046    -0.20100
F593        F  0.34168100  0.39264609  0.23470257    -0.19700
F594        F  0.04380889  0.40052506  0.19973326    -0.19800
F595        F  0.02891511  0.45604791  0.18376325    -0.20100
F596        F  0.01815803  0.39940381  0.16741334    -0.22800
C597        C  0.15769099  0.41383423  0.21403638    -0.05600
C598        C  0.13851156  0.44809346  0.20830524     0.00300
C599        C  0.15182044  0.46749032  0.18976839    -0.08300
C600        C  0.18408633  0.45237853  0.17824836    -0.05700
C601        C  0.20332824  0.41899968  0.18448373     0.00300
C602        C  0.18993457  0.39904076  0.20251681    -0.08200
C603        C  0.20926776  0.36193252  0.20932789     0.62200
H604        H  0.14755311  0.39854804  0.22791400     0.12900
H605        H  0.19481527  0.46646251  0.16408207     0.12900
C606        C  0.13328020  0.50421622  0.18210826     0.62400
F607        F  0.24876995  0.36860213  0.21342472    -0.22700
F608        F  0.20602792  0.33446749  0.19346771    -0.20100
F609        F  0.19182324  0.34714362  0.22744164    -0.19700
F610        F  0.15070877  0.51700272  0.16354974    -0.19800
F611        F  0.14173128  0.03150173  0.19616356    -0.20100
F612        F  0.09362632  0.49816935  0.17833145    -0.22800
C613        C  0.43589325  0.08464429  0.21033335    -0.05600
C614        C  0.44825082  0.04752084  0.20423795     0.00300
C615        C  0.43190394  0.03007308  0.18599265    -0.08300
C616        C  0.40453985  0.05051116  0.17420735    -0.05700
C617        C  0.39078230  0.08634125  0.18108533     0.00300
C618        C  0.40640588  0.10397457  0.19934128    -0.08200
C619        C  0.39032871  0.14189968  0.20767569     0.62200
H620        H  0.44793131  0.09747140  0.22455377     0.12900
H621        H  0.39150932  0.03761850  0.16025507     0.12900
C622        C  0.96330507  0.01984579  0.17811280     0.62400
F623        F  0.41121096  0.15541287  0.22491223    -0.22700
F624        F  0.35127509  0.13684258  0.21381262    -0.20100
F625        F  0.39254962  0.16956153  0.19215083    -0.19700
F626        F  0.95830926  0.98472254  0.18755350    -0.19800
F627        F  0.00240284  0.03150961  0.17916594    -0.20100
F628        F  0.95374938  0.01550511  0.15697604    -0.22800
C629        C  0.17614159  0.08677214  0.23572579    -0.05600
C630        C  0.13541869  0.08672833  0.23191838     0.00300
C631        C  0.12190977  0.10923462  0.21487152    -0.08300
C632        C  0.14994717  0.12184121  0.19960783    -0.05700
C633        C  0.19006251  0.11114192  0.20044048     0.00300
C634        C  0.20338791  0.10246214  0.22115407    -0.08200
C635        C  0.24282300  0.11522529  0.23010246     0.62200
H636        H  0.18683259  0.07498425  0.25034635     0.12900
H637        H  0.14009032  0.13879642  0.18655880     0.12900
C638        C  0.07843516  0.11733736  0.21153335     0.62400
F639        F  0.23614938  0.13638202  0.24842424    -0.22700
F640        F  0.26391523  0.13874605  0.21648648    -0.20100
F641        F  0.26503257  0.08351373  0.23518568    -0.19700
F642        F  0.06083828  0.12937633  0.23027906    -0.19800
F643        F  0.05964369  0.08440033  0.20414909    -0.20100
F644        F  0.07322519  0.14610135  0.19690696    -0.22800
C645        C  0.20151786  0.12741524  0.68573170    -0.05600
C646        C  0.18246378  0.16349401  0.68531249     0.00300
C647        C  0.14655004  0.16727358  0.69712058    -0.08300
C648        C  0.13027474  0.13470724  0.70750724    -0.05700
C649        C  0.14767234  0.09813581  0.70659881     0.00300
C650        C  0.18475826  0.09471913  0.69606677    -0.08200
C651        C  0.20714124  0.05715084  0.69631559     0.62200
H652        H  0.22932802  0.12470454  0.67723764     0.12900
H653        H  0.10272577  0.13741394  0.71621710     0.12900
C654        C  0.12454419  0.20514292  0.69890623     0.62400
F655        F  0.24458907  0.06105799  0.68748705    -0.22700
F656        F  0.18688672  0.02917888  0.68501430    -0.20100
F657        F  0.21122659  0.04517345  0.71690515    -0.19700
F658        F  0.12035963  0.22156646  0.67928491    -0.19800
F659        F  0.14456362  0.23034067  0.71200927    -0.20100
F660        F  0.08730267  0.19991864  0.70765771    -0.22800
C661        C  0.15922888  0.34648648  0.70635712    -0.05600
C662        C  0.19006684  0.36059902  0.69362394     0.00300
C663        C  0.20455726  0.39864090  0.69767574    -0.08300
C664        C  0.18359201  0.42267432  0.71206951    -0.05700
C665        C  0.15086583  0.40899748  0.72390090     0.00300
C666        C  0.14102150  0.36880644  0.72218939    -0.08200
C667        C  0.11056301  0.34844495  0.73619793     0.62200
H668        H  0.14832543  0.31750024  0.70335873     0.12900
H669        H  0.19258413  0.45260717  0.71374013     0.12900
C670        C  0.24184183  0.41520938  0.68759707     0.62400
F671        F  0.07277327  0.35608904  0.72944294    -0.22700
F672        F  0.11479580  0.36015912  0.75695511    -0.20100
F673        F  0.11527571  0.30883923  0.73565321    -0.19700
F674        F  0.23227335  0.44594507  0.67499605    -0.19800
F675        F  0.26232157  0.38850788  0.67553473    -0.20100
F676        F  0.26679218  0.42828230  0.70331137    -0.22800
C677        C  0.04224612  0.10768877  0.68308165    -0.05600
C678        C  0.01638220  0.10411085  0.70042034     0.00300
C679        C  0.47893448  0.12859055  0.70687863    -0.08300
C680        C  0.47034558  0.15464103  0.69068326    -0.05700
C681        C  0.49475137  0.15814917  0.67269763     0.00300
C682        C  0.03538429  0.13420680  0.66700120    -0.08200
C683        C  0.06644420  0.14061675  0.64981023     0.62200
H684        H  0.06933327  0.09138527  0.68297452     0.12900
H685        H  0.44502665  0.17333015  0.69216987     0.12900
C686        C  0.45157314  0.12552837  0.72602152     0.62400
F687        F  0.09968032  0.11857782  0.65286947    -0.22700
F688        F  0.07819411  0.17887939  0.64965587    -0.20100
F689        F  0.05110566  0.13089152  0.63035403    -0.19700
F690        F  0.47042583  0.13883473  0.74392714    -0.19800
F691        F  0.44030955  0.08746856  0.72883432    -0.20100
F692        F  0.41771337  0.14698624  0.72365259    -0.22800
C693        C  0.47680321  0.40252018  0.70346219    -0.05600
C694        C  0.02172126  0.42200983  0.69562926     0.00300
C695        C  0.04232437  0.41754127  0.67593023    -0.08300
C696        C  0.03345545  0.38536726  0.66298537    -0.05700
C697        C  0.48968928  0.36166516  0.67285446     0.00300
C698        C  0.46584533  0.37082845  0.69060687    -0.08200
C699        C  0.42878703  0.34748374  0.69564881     0.62200
H700        H  0.45962169  0.40872692  0.71759252     0.12900
H701        H  0.04963339  0.38089011  0.64831747     0.12900
C702        C  0.07319688  0.44642468  0.66806588     0.62400
F703        F  0.43865185  0.30999760  0.70023793    -0.22700
F704        F  0.40398444  0.34732089  0.67846903    -0.20100
F705        F  0.40823595  0.36256644  0.71280064    -0.19700
F706        F  0.10710998  0.44401877  0.67988531    -0.19800
F707        F  0.05828353  0.48334903  0.66942893    -0.20100
F708        F  0.08371770  0.43970748  0.64716409    -0.22800
C709        C  0.40693077  0.14151371  0.53904044    -0.05600
C710        C  0.42707314  0.10648140  0.53632205     0.00300
C711        C  0.46367144  0.10152286  0.54663490    -0.08300
C712        C  0.47676272  0.13058073  0.56064920    -0.05700
C713        C  0.45412050  0.16341235  0.56493607     0.00300
C714        C  0.41878422  0.16946185  0.55375450    -0.08200
C715        C  0.39230997  0.20417761  0.55774159     0.62200
H716        H  0.37963534  0.14586207  0.53073221     0.12900
H717        H  0.50385517  0.12697569  0.56929025     0.12900
C718        C  0.48849250  0.06568710  0.54356576     0.62400
F719        F  0.35466218  0.19798702  0.55001555    -0.22700
F720        F  0.40807032  0.23609061  0.54774112    -0.20100
F721        F  0.38843317  0.21194372  0.57910321    -0.19700
F722        F  0.49118531  0.05608571  0.52238326    -0.19800
F723        F  0.47175823  0.03528960  0.55455687    -0.20100
F724        F  0.52654194  0.07142693  0.55082816    -0.22800
C725        C  0.40930990  0.34063859  0.55980194    -0.05600
C726        C  0.44686324  0.35165730  0.56667226     0.00300
C727        C  0.46353975  0.38714455  0.56041835    -0.08300
C728        C  0.43947322  0.41309258  0.54981632    -0.05700
C729        C  0.39987820  0.40393630  0.54490337     0.00300
C730        C  0.38551954  0.36583594  0.54858449    -0.08200
C731        C  0.34497728  0.35173504  0.54180831     0.62200
H732        H  0.39790217  0.31265982  0.56447152     0.12900
H733        H  0.45134933  0.44119336  0.54579839     0.12900
C734        C  0.50649667  0.39704075  0.56472494     0.62400
F735        F  0.33911563  0.31300254  0.54599408    -0.22700
F736        F  0.34078858  0.35626333  0.52032853    -0.20100
F737        F  0.31628083  0.37238246  0.55254769    -0.19700
F738        F  0.51724497  0.43259638  0.55662682    -0.19800
F739        F  0.53032277  0.36945751  0.55535282    -0.20100
F740        F  0.51331570  0.39792062  0.58616723    -0.22800
C741        C  0.30959238  0.12810566  0.57232344    -0.05600
C742        C  0.28811066  0.12060868  0.55386956     0.00300
C743        C  0.25314926  0.14206178  0.55027437    -0.08300
C744        C  0.24183824  0.17070943  0.56497455    -0.05700
C745        C  0.26319495  0.17788833  0.58335186     0.00300
C746        C  0.29755375  0.15619686  0.58725345    -0.08200
C747        C  0.32069211  0.16159045  0.60743279     0.62200
H748        H  0.33602639  0.11166968  0.57503418     0.12900
H749        H  0.21554783  0.18748430  0.56246619     0.12900
C750        C  0.22663334  0.13413269  0.53154055     0.62400
F751        F  0.35735299  0.14443097  0.60596319    -0.22700
F752        F  0.29992038  0.14497971  0.62398000    -0.20100
F753        F  0.32666800  0.20033098  0.61177921    -0.19700
F754        F  0.21906170  0.09499110  0.52977904    -0.19800
F755        F  0.24463550  0.14738080  0.51324913    -0.20100
F756        F  0.19062094  0.15239338  0.53373750    -0.22800
C757        C  0.23350163  0.41329105  0.55073718    -0.05600
C758        C  0.25465655  0.44506274  0.55905973     0.00300
C759        C  0.26056742  0.44604298  0.58132569    -0.08300
C760        C  0.25051458  0.41344103  0.59353952    -0.05700
C761        C  0.23133343  0.38060287  0.58515316     0.00300
C762        C  0.22064914  0.38176230  0.56338198    -0.08200
C763        C  0.19604798  0.35098152  0.55237428     0.62200
H764        H  0.22808507  0.41222206  0.53391848     0.12900
H765        H  0.25876596  0.41319885  0.60999411     0.12900
C766        C  0.27897777  0.48056358  0.59258713     0.62400
F767        F  0.16445362  0.36814136  0.54268176    -0.22700
F768        F  0.18087745  0.32354442  0.56595080    -0.20100
F769        F  0.21896106  0.33291018  0.53706169    -0.19700
F770        F  0.26642478  0.51456070  0.58377503    -0.19800
F771        F  0.31972778  0.47862057  0.59127247    -0.20100
F772        F  0.26812038  0.48141311  0.61374035    -0.22800
C773        C  0.11443279  0.11686859  0.34368953    -0.05600
C774        C  0.15138081  0.13410423  0.34043739     0.00300
C775        C  0.17827595  0.11744133  0.32558594    -0.08300
C776        C  0.16568629  0.08494638  0.31364388    -0.05700
C777        C  0.12926964  0.06665415  0.31795652     0.00300
C778        C  0.10478798  0.08148356  0.33452189    -0.08200
C779        C  0.06791973  0.06132847  0.34312208     0.62200
H780        H  0.09437440  0.12942883  0.35529831     0.12900
H781        H  0.18404820  0.07416203  0.30079461     0.12900
C782        C  0.21906679  0.13413350  0.32105957     0.62400
F783        F  0.06619580  0.06526007  0.36488152    -0.22700
F784        F  0.06763750  0.02229605  0.33864809    -0.20100
F785        F  0.03472948  0.07800460  0.33481774    -0.19700
F786        F  0.24556274  0.10472729  0.31715497    -0.19800
F787        F  0.23330639  0.15586611  0.33776286    -0.20100
F788        F  0.21756045  0.15708172  0.30339532    -0.22800
C789        C  0.16111544  0.35724132  0.33303851    -0.05600
C790        C  0.13195736  0.33628566  0.34412099     0.00300
C791        C  0.09176982  0.34661599  0.34187874    -0.08300
C792        C  0.08210832  0.37682334  0.32800919    -0.05700
C793        C  0.11134211  0.39734572  0.31660039     0.00300
C794        C  0.15159396  0.38801643  0.31962093    -0.08200
C795        C  0.18447192  0.41199766  0.30965687     0.62200
H796        H  0.19169320  0.34968390  0.33536517     0.12900
H797        H  0.05154937  0.38489342  0.32608517     0.12900
C798        C  0.05947537  0.32627625  0.35450568     0.62400
F799        F  0.22140810  0.40043353  0.31605250    -0.22700
F800        F  0.18002113  0.45023809  0.31549677    -0.20100
F801        F  0.18316221  0.40866724  0.28792804    -0.19700
F802        F  0.06570394  0.33196162  0.37584154    -0.19800
F803        F  0.05985812  0.28720266  0.35004559    -0.20100
F804        F  0.02235110  0.33999242  0.34990790    -0.22800
C805        C  0.22358866  0.09036248  0.47307872    -0.05600
C806        C  0.24973299  0.06505225  0.46257441     0.00300
C807        C  0.25651942  0.07066004  0.44055579    -0.08300
C808        C  0.24453339  0.10499962  0.43128547    -0.05700
C809        C  0.21918897  0.13069314  0.44172992     0.00300
C810        C  0.20622063  0.12177555  0.46253990    -0.08200
C811        C  0.17278821  0.14386761  0.47298792     0.62200
H812        H  0.21662071  0.08527301  0.48950737     0.12900
H813        H  0.25282133  0.11074622  0.41502574     0.12900
C814        C  0.27283037  0.03937117  0.42612294     0.62400
F815        F  0.16267467  0.12889551  0.49250435    -0.22700
F816        F  0.13977275  0.14158210  0.46037577    -0.20100
F817        F  0.18344004  0.18208099  0.47577025    -0.19700
F818        F  0.26155683  0.04463009  0.40542306    -0.19800
F819        F  0.31366726  0.03928048  0.42656698    -0.20100
F820        F  0.25769267  0.00411881  0.43240205    -0.22800
C821        C  0.23236852  0.37272738  0.47259443    -0.05600
C822        C  0.26465852  0.39315427  0.46368751     0.00300
C823        C  0.27582528  0.38531759  0.44233230    -0.08300
C824        C  0.25619055  0.35539585  0.43145992    -0.05700
C825        C  0.22521949  0.33430250  0.44074011     0.00300
C826        C  0.21206401  0.34370357  0.46136699    -0.08200
C827        C  0.17670305  0.32329949  0.47138574     0.62200
H828        H  0.22323585  0.37939827  0.48865019     0.12900
H829        H  0.26480618  0.34793159  0.41542468     0.12900
C830        C  0.30850758  0.40729060  0.43086082     0.62400
F831        F  0.16570656  0.34024739  0.49041514    -0.22700
F832        F  0.18569032  0.28526738  0.47512134    -0.20100
F833        F  0.14472746  0.32467596  0.45805579    -0.19700
F834        F  0.34362302  0.40359678  0.44135863    -0.19800
F835        F  0.29912098  0.44572936  0.42963915    -0.20100
F836        F  0.31403995  0.39385329  0.41041740    -0.22800
C837        C  0.51194669  0.15922588  0.31179342    -0.05600
C838        C  0.47358770  0.16248811  0.32033793     0.00300
C839        C  0.44538976  0.13321112  0.31532337    -0.08300
C840        C  0.45830493  0.09900550  0.30538147    -0.05700
C841        C  0.49754445  0.09420061  0.29852592     0.00300
C842        C  0.52386980  0.12637828  0.30000933    -0.08200
C843        C  0.56443353  0.12824945  0.28964841     0.62200
H844        H  0.53327784  0.18204585  0.31493082     0.12900
H845        H  0.43726930  0.07563723  0.30291180     0.12900
C846        C  0.40168918  0.13586077  0.32077766     0.62400
F847        F  0.56518570  0.15760055  0.27505987    -0.22700
F848        F  0.57508022  0.09470320  0.27941088    -0.20100
F849        F  0.59228343  0.13635143  0.30470297    -0.19700
F850        F  0.39087618  0.10590787  0.33395782    -0.19800
F851        F  0.38026274  0.13267366  0.30239444    -0.20100
F852        F  0.39164180  0.17022912  0.33054598    -0.22800
C853        C  0.44621319  0.39643787  0.34282618    -0.05600
C854        C  0.42891790  0.36425696  0.33263323     0.00300
C855        C  0.41397034  0.36962978  0.31191420    -0.08300
C856        C  0.42343713  0.40428561  0.30118885    -0.05700
C857        C  0.44263855  0.43517321  0.31143383     0.00300
C858        C  0.44949106  0.43238340  0.33328905    -0.08200
C859        C  0.46287697  0.46629154  0.34682375     0.62200
H860        H  0.45714244  0.39381223  0.35874354     0.12900
H861        H  0.41722359  0.40654819  0.28452611     0.12900
C862        C  0.38792436  0.34069270  0.30047180     0.62400
F863        F  0.43769935  0.46969085  0.36411362    -0.22700
F864        F  0.46225073  0.50074470  0.33604669    -0.20100
F865        F  0.00874535  0.46184380  0.34395812    -0.19700
F866        F  0.37636217  0.31013361  0.31299228    -0.19800
F867        F  0.40776392  0.32668533  0.28283961    -0.20100
F868        F  0.35406858  0.35890916  0.29400474    -0.22800
C869        C  0.37049393  0.12414046  0.44488996    -0.05600
C870        C  0.39447452  0.10112462  0.45735610     0.00300
C871        C  0.43637069  0.10406575  0.45515826    -0.08300
C872        C  0.45257324  0.12983398  0.44034671    -0.05700
C873        C  0.42847359  0.15257083  0.42799377     0.00300
C874        C  0.38679088  0.14979733  0.43008863    -0.08200
C875        C  0.35966865  0.17380223  0.41666855     0.62200
H876        H  0.33869739  0.12129573  0.44655537     0.12900
H877        H  0.48429002  0.13294337  0.43841465     0.12900
C878        C  0.46413489  0.08194901  0.46905491     0.62400
F879        F  0.36675529  0.16615005  0.39551144    -0.22700
F880        F  0.36636523  0.21246783  0.42061256    -0.20100
F881        F  0.32016887  0.16603902  0.42091013    -0.19700
F882        F  0.46196638  0.04302106  0.46445245    -0.19800
F883        F  0.45389159  0.08829004  0.48991056    -0.20100
F884        F  0.50310423  0.09363454  0.46630190    -0.22800
C885        C  0.44787389  0.37891329  0.43942976    -0.05600
C886        C  0.42540167  0.34465817  0.43924674     0.00300
C887        C  0.39798730  0.33782905  0.45599465    -0.08300
C888        C  0.39467168  0.36537366  0.47225063    -0.05700
C889        C  0.41236079  0.40214755  0.47069522     0.00300
C890        C  0.44177240  0.40802349  0.45476910    -0.08200
C891        C  0.46429779  0.44567934  0.45216862     0.62200
H892        H  0.46899356  0.38370327  0.42668884     0.12900
H893        H  0.37298519  0.36001152  0.48459306     0.12900
C894        C  0.36852954  0.30446684  0.45681469     0.62400
F895        F  0.50114402  0.43934796  0.44311912    -0.22700
F896        F  0.47027036  0.46373400  0.47144508    -0.20100
F897        F  0.44337457  0.46953226  0.43911975    -0.19700
F898        F  0.37706406  0.28119319  0.47370252    -0.19800
F899        F  0.36815393  0.28234235  0.43865058    -0.20100
F900        F  0.33082168  0.31879589  0.45969795    -0.22800
N901        N  0.43493868  0.75208615  0.40579657    -0.36500
N902        N  0.42921757  0.81664447  0.37850450    -0.57000
N903        N  0.42769154  0.76360318  0.34190622    -0.36500
N904        N  0.43589837  0.69922569  0.37031205    -0.57000
C905        C  0.44589153  0.78071900  0.41915113     0.27100
C906        C  0.44248526  0.71857135  0.41531491     0.27100
C907        C  0.43214826  0.79865299  0.33267337     0.27100
C908        C  0.44159777  0.73617489  0.32824181     0.27100
C909        C  0.42232131  0.83397659  0.39745951     0.35700
C910        C  0.41307544  0.83920479  0.36372149     0.35700
C911        C  0.42904814  0.67360345  0.38593533     0.35700
C912        C  0.43477925  0.67913843  0.35193940     0.35700
C913        C  0.46236618  0.76513098  0.43703897    -0.21700
C914        C  0.45930431  0.72565741  0.43481850    -0.21700
C915        C  0.44868914  0.79341255  0.31272837    -0.21700
C916        C  0.45436095  0.75420772  0.30989012    -0.21700
C917        C  0.40222734  0.86795229  0.39473402    -0.22800
C918        C  0.39560403  0.87090990  0.37345952    -0.22800
C919        C  0.42441302  0.63691792  0.37762971    -0.22800
C920        C  0.42910618  0.64019685  0.35616988    -0.22800
C921        C  0.43424961  0.81933113  0.41713323    -0.18100
C922        C  0.42956628  0.68251263  0.40769803    -0.18100
C923        C  0.44140424  0.69530803  0.33163622    -0.18100
C924        C  0.41972165  0.83475911  0.34160082    -0.18100
H925        H  0.47239858  0.78054309  0.45094032     0.14800
H926        H  0.46739402  0.70474751  0.44649097     0.14800
H927        H  0.45582978  0.81549598  0.30132721     0.14800
H928        H  0.46643122  0.74061717  0.29582169     0.14800
H929        H  0.39340033  0.88846615  0.40678728     0.13000
H930        H  0.38091128  0.89453565  0.36592212     0.13000
H931        H  0.41985390  0.61039657  0.38621128     0.13000
H932        H  0.42879658  0.61623332  0.34519042     0.13000
H933        H  0.41653635  0.75464327  0.39287249     0.26300
H934        H  0.41255438  0.75866922  0.35603416     0.26300
N935        N  0.16238496  0.73463449  0.36001507    -0.36500
N936        N  0.18163714  0.67533128  0.39107491    -0.57000
N937        N  0.19850505  0.73355716  0.42226244    -0.36500
N938        N  0.17948033  0.79350790  0.39100251    -0.57000
C939        C  0.15952717  0.70300709  0.34738375     0.27100
C940        C  0.15203646  0.76589544  0.34866914     0.27100
C941        C  0.21343731  0.70183700  0.43147206     0.27100
C942        C  0.21861527  0.76448614  0.42987807     0.27100
C943        C  0.17014680  0.65229038  0.37492165     0.35700
C944        C  0.18189447  0.65309247  0.40851494     0.35700
C945        C  0.16195312  0.81643860  0.37679113     0.35700
C946        C  0.18852357  0.81577102  0.40789011     0.35700
C947        C  0.14730217  0.71434065  0.32759060    -0.21700
C948        C  0.14243870  0.75379972  0.32842805    -0.21700
C949        C  0.24309039  0.71272053  0.44521879    -0.21700
C950        C  0.24638584  0.75223774  0.44422321    -0.21700
C951        C  0.16376467  0.61505863  0.38227533    -0.22800
C952        C  0.16937966  0.61605403  0.40353459    -0.22800
C953        C  0.15986130  0.85370049  0.38481510    -0.22800
C954        C  0.17672801  0.85328632  0.40444910    -0.22800
C955        C  0.16401457  0.66397408  0.35372365    -0.18100
C956        C  0.14946897  0.80472225  0.35629750    -0.18100
C957        C  0.21071398  0.80362353  0.42539289    -0.18100
C958        C  0.20079818  0.66343924  0.42759173    -0.18100
H959        H  0.14117917  0.69595056  0.31410477     0.14800
H960        H  0.13222988  0.77139870  0.31564772     0.14800
H961        H  0.26061359  0.69411776  0.45490575     0.14800
H962        H  0.26677125  0.76995903  0.45318227     0.14800
H963        H  0.15575423  0.58938000  0.37347820     0.13000
H964        H  0.16705711  0.59149051  0.41388091     0.13000
H965        H  0.14808483  0.87877826  0.37720144     0.13000
H966        H  0.18048243  0.87794244  0.41485586     0.13000
H967        H  0.16902378  0.73433613  0.37576021     0.26300
H968        H  0.17356423  0.73433244  0.41285445     0.26300
O969        O  0.36660650  0.92265324  0.49320154    -0.80000
O970        O  0.36858250  0.58632230  0.51567722    -0.80000
O971        O  0.38122188  0.54322270  0.47167471    -0.80000
O972        O  0.39381245  0.96588235  0.53670911    -0.80000
O973        O  0.33551708  0.58473303  0.48038016    -0.80100
O974        O  0.34593102  0.92444380  0.53071296    -0.80000
O975        O  0.40314228  0.54498503  0.53219391    -0.80000
O976        O  0.40059299  0.96413323  0.47580651    -0.80000
C977        C  0.39558311  0.93010537  0.48123505     1.09700
C978        C  0.39922958  0.57843449  0.52568221     1.09600
C979        C  0.36683521  0.57635417  0.47001142     1.09700
C980        C  0.38062320  0.93166723  0.53705346     1.09600
O981        O  0.27578691  0.96863656  0.52521132    -0.80000
O982        O  0.26802491  0.53948775  0.49543174    -0.80100
O983        O  0.31359722  0.94558435  0.47026394    -0.80000
O984        O  0.31994125  0.56573043  0.54439328    -0.80000
O985        O  0.29374383  0.60101730  0.51856498    -0.80000
O986        O  0.29151647  0.90979420  0.49744087    -0.80000
O987        O  0.31548240  0.98081509  0.55124952    -0.80000
O988        O  0.29888332  0.52755586  0.46582403    -0.80000
Co989      Co  0.32119777  0.95205028  0.50690792     1.51500
Co990      Co  0.31883019  0.55788743  0.50735027     1.51700
Co991      Co  0.34604456  0.49770924  0.47348318     1.51600
Co992      Co  0.35485701  0.51550943  0.53822218     1.51500
O993        O  0.34295541  0.50663442  0.50613199    -1.41900
C994        C  0.28294151  0.96719044  0.54486033     1.09600
C995        C  0.26883017  0.54032485  0.47545409     1.09700
C996        C  0.29289294  0.91645027  0.47762772     1.09700
C997        C  0.29913986  0.59520294  0.53811528     1.09600
N998        N  0.47502096  0.75814713  0.58969690    -0.36500
N999        N  0.48064215  0.81703172  0.62227909    -0.57000
N1000       N  0.47897398  0.75705779  0.65335718    -0.36500
N1001       N  0.47526672  0.69818019  0.61936125    -0.57000
C1002       C  0.48331486  0.78990853  0.57843600     0.27100
C1003       C  0.48054870  0.72753241  0.57676021     0.27100
C1004       C  0.49142477  0.78778343  0.66506505     0.27100
C1005       C  0.48938063  0.72475388  0.66354491     0.27100
C1006       C  0.46748259  0.83798322  0.60608085     0.35700
C1007       C  0.47270962  0.83766688  0.63993930     0.35700
C1008       C  0.46264626  0.67761858  0.60245319     0.35700
C1009       C  0.46779796  0.67653881  0.63649926     0.35700
C1010       C  0.49538279  0.77951988  0.55819311    -0.21700
C1011       C  0.49405565  0.73984470  0.55719454    -0.21700
C1012       C  0.01512951  0.77761915  0.68044841    -0.21700
C1013       C  0.01351257  0.73785322  0.68059138    -0.21700
C1014       C  0.45130591  0.87220217  0.61347959    -0.22800
C1015       C  0.45531172  0.87227405  0.63501083    -0.22800
C1016       C  0.44718281  0.64245879  0.60887124    -0.22800
C1017       C  0.45071550  0.64166194  0.63051363    -0.22800
C1018       C  0.47142226  0.82692888  0.58470506    -0.18100
C1019       C  0.46687747  0.69011084  0.58135615    -0.18100
C1020       C  0.48061605  0.68629896  0.65698123    -0.18100
C1021       C  0.48454982  0.82691524  0.66018607    -0.18100
H1022       H  0.50171261  0.79859277  0.54514508     0.14800
H1023       H  0.49929996  0.72226616  0.54325258     0.14800
H1024       H  0.02733969  0.79597030  0.69269848     0.14800
H1025       H  0.02377553  0.71977120  0.69305957     0.14800
H1026       H  0.43866789  0.89502625  0.60432067     0.13000
H1027       H  0.44636862  0.89498569  0.64583036     0.13000
H1028       H  0.43529445  0.61959497  0.59901584     0.13000
H1029       H  0.44238038  0.61794738  0.64066168     0.13000
H1030       H  0.45863519  0.75799952  0.60369040     0.26300
H1031       H  0.46099473  0.75792848  0.64020389     0.26300
N1032       N  0.23019937  0.77627389  0.60663525    -0.36500
N1033       N  0.21452140  0.83036158  0.63988386    -0.57000
N1034       N  0.19997702  0.76492562  0.66894192    -0.36500
N1035       N  0.21895257  0.71137910  0.63666223    -0.57000
C1036       C  0.24145719  0.80982629  0.59731140     0.27100
C1037       C  0.24941206  0.74720015  0.59658070     0.27100
C1038       C  0.20708253  0.79489325  0.68225236     0.27100
C1039       C  0.20408885  0.73181462  0.67995125     0.27100
C1040       C  0.20976597  0.85374176  0.62306176     0.35700
C1041       C  0.19723224  0.84789416  0.65676346     0.35700
C1042       C  0.22218820  0.69287918  0.61790579     0.35700
C1043       C  0.20027564  0.68679687  0.65007191     0.35700
C1044       C  0.26793288  0.80178415  0.58107974    -0.21700
C1045       C  0.27302680  0.76239284  0.58059348    -0.21700
C1046       C  0.21699753  0.78054219  0.70186165    -0.21700
C1047       C  0.21532466  0.74073017  0.70034869    -0.21700
C1048       C  0.18908961  0.88622936  0.62929246    -0.22800
C1049       C  0.18095117  0.88243471  0.65056391    -0.22800
C1050       C  0.20561894  0.65628855  0.61929988    -0.22800
C1051       C  0.19106130  0.65267213  0.63956414    -0.22800
C1052       C  0.22675077  0.84706376  0.60266555    -0.18100
C1053       C  0.24345486  0.70722503  0.60029115    -0.18100
C1054       C  0.19493527  0.69432228  0.67199550    -0.18100
C1055       C  0.19882380  0.83421285  0.67785567    -0.18100
H1056       H  0.28181535  0.82210825  0.57055507     0.14800
H1057       H  0.29146962  0.74668289  0.56947394     0.14800
H1058       H  0.22326773  0.79709643  0.71601502     0.14800
H1059       H  0.22033692  0.72067749  0.71297947     0.14800
H1060       H  0.18092381  0.91024075  0.61956644     0.13000
H1061       H  0.16516095  0.90299150  0.66034500     0.13000
H1062       H  0.20439241  0.63442050  0.60701811     0.13000
H1063       H  0.17628737  0.62740099  0.64581070     0.13000
H1064       H  0.20756520  0.77292075  0.61776728     0.26300
H1065       H  0.18734367  0.76709909  0.65409550     0.26300
O1066       O  0.00482186  0.95620890  0.30215778    -0.80000
O1067       O  0.08990695  0.99394729  0.21945218    -0.80000
O1068       O  0.47143308  0.95369357  0.24652404    -0.80000
O1069       O  0.10516417  0.93207038  0.28294936    -0.80000
O1070       O  0.02144138  0.96333964  0.22373931    -0.80100
O1071       O  0.08145719  0.96018125  0.31141270    -0.80000
O1072       O  0.10496956  0.94943438  0.24142507    -0.80000
O1073       O  0.45444003  0.99197128  0.28070358    -0.80000
C1074       C  0.45719748  0.95927853  0.28950037     1.09700
C1075       C  0.10916457  0.96416585  0.22333638     1.09600
C1076       C  0.48779885  0.92965293  0.23469052     1.09700
C1077       C  0.09850850  0.93154996  0.30252144     1.09600
O1078       O  0.07912209  0.54071694  0.29821657    -0.80000
O1079       O  0.00964405  0.53486736  0.21859420    -0.80100
O1080       O  0.50319607  0.55248165  0.26645634    -0.80000
O1081       O  0.12733830  0.52580709  0.25062578    -0.80000
O1082       O  0.07172725  0.55692710  0.24626035    -0.80000
O1083       O  0.00146943  0.53837658  0.29849498    -0.80000
O1084       O  0.13253289  0.50796734  0.29306703    -0.80000
O1085       O  0.45476717  0.51362431  0.24077815    -0.80000
Co1086     Co  0.04120383  0.99926090  0.30097998     1.51500
Co1087     Co  0.04646588  0.00837668  0.23903818     1.51700
Co1088     Co  0.49790840  0.00223749  0.25786728     1.51600
Co1089     Co  0.11183151  0.98084926  0.26754961     1.51500
O1090       O  0.05052846  0.98941540  0.26986048    -1.41900
C1091       C  0.11474880  0.53622026  0.30167444     1.09600
C1092       C  0.46810969  0.53016333  0.22388792     1.09700
C1093       C  0.49829006  0.56344949  0.28528240     1.09700
C1094       C  0.10917584  0.55587113  0.24490880     1.09600
O1095       O  0.44738154  0.72611598  0.98931320    -0.80000
O1096       O  0.08480637  0.66796367  0.02930772    -0.80000
O1097       O  0.07524925  0.72384351  0.96359648    -0.80000
O1098       O  0.99279016  0.72088830  0.04933838    -0.80000
O1099       O  0.08371056  0.67589894  0.98466786    -0.80100
O1100       O  0.48305105  0.68793418  0.02055468    -0.80000
O1101       O  0.07196847  0.71067060  0.05428411    -0.80000
O1102       O  0.99824711  0.70885292  0.97295341    -0.80000
C1103       C  0.96015304  0.70510273  0.97413583     1.09700
C1104       C  0.08529900  0.67793990  0.04864254     1.09600
C1105       C  0.08920397  0.69075353  0.96668882     1.09700
C1106       C  0.47677347  0.69381371  0.04014643     1.09600
O1107       O  0.46538047  0.76688417  0.02694726    -0.80000
O1108       O  0.12506809  0.74880835  0.98976452    -0.80100
O1109       O  0.01978559  0.77891864  0.95750961    -0.80000
O1110       O  0.08927460  0.78589374  0.03733586    -0.80000
O1111       O  0.12939217  0.73801124  0.03212248    -0.80000
O1112       O  0.49252358  0.78973366  0.98962658    -0.80000
O1113       O  0.01303026  0.79861485  0.03233733    -0.80000
O1114       O  0.07959111  0.79328381  0.98640535    -0.80000
Co1115     Co  0.49405212  0.73602380  0.00424586     1.51500
Co1116     Co  0.10130058  0.70839444  0.00890953     1.51700
Co1117     Co  0.03790009  0.75291784  0.98205994     1.51600
Co1118     Co  0.04193987  0.75341651  0.04138456     1.51500
O1119       O  0.04653473  0.73405852  0.01150517    -1.41900
C1120       C  0.48178297  0.79374899  0.03737908     1.09600
C1121       C  0.11547908  0.78270685  0.98443644     1.09700
C1122       C  0.99104371  0.79345897  0.96767072     1.09700
C1123       C  0.12278798  0.77148278  0.03956145     1.09600
N1124       N  0.29504519  0.87030300  0.91955880    -0.36500
N1125       N  0.23131855  0.88227122  0.89002168    -0.57000
N1126       N  0.29018162  0.90269912  0.85793194    -0.36500
N1127       N  0.35337892  0.89323938  0.88864704    -0.57000
C1128       C  0.26341793  0.87329874  0.93274187     0.27100
C1129       C  0.32792726  0.87497239  0.93131031     0.27100
C1130       C  0.25613656  0.91190067  0.84812666     0.27100
C1131       C  0.32051771  0.92189914  0.84825217     0.27100
C1132       C  0.21135488  0.86445906  0.90594605     0.35700
C1133       C  0.20905700  0.87828850  0.87248186     0.35700
C1134       C  0.37710404  0.87532029  0.90242129     0.35700
C1135       C  0.37466792  0.89781611  0.87063985     0.35700
C1136       C  0.27641506  0.88107979  0.95305233    -0.21700
C1137       C  0.31721985  0.88225482  0.95212288    -0.21700
C1138       C  0.26501639  0.93732493  0.83192952    -0.21700
C1139       C  0.30551137  0.94360290  0.83201410    -0.21700
C1140       C  0.17614010  0.84923175  0.89851094    -0.22800
C1141       C  0.17472820  0.85783544  0.87736475    -0.22800
C1142       C  0.41357272  0.86824378  0.89304274    -0.22800
C1143       C  0.41223178  0.88306391  0.87302183    -0.25200
C1144       C  0.22393183  0.86367937  0.92727849    -0.18100
C1145       C  0.36685174  0.86831893  0.92379984    -0.18100
C1146       C  0.36149964  0.91766539  0.85268837    -0.18100
C1147       C  0.21792028  0.89564693  0.85264439    -0.18100
H1148       H  0.25839083  0.88396083  0.96720451     0.14800
H1149       H  0.33680603  0.88615197  0.96535649     0.14800
H1150       H  0.24453520  0.94971016  0.82099396     0.14800
H1151       H  0.32210639  0.96153424  0.82110276     0.14800
H1152       H  0.15363071  0.83381796  0.90739006     0.13000
H1153       H  0.15089678  0.85019265  0.86684936     0.13000
H1154       H  0.43881174  0.85458266  0.89996406     0.13000
H1155       H  0.43617423  0.88298985  0.86153044     0.13000
H1156       H  0.29450657  0.85959061  0.90414711     0.26300
H1157       H  0.29297198  0.88115210  0.86907786     0.26300
N1158       N  0.28791158  0.64719455  0.90482657    -0.36500
N1159       N  0.23282576  0.64765773  0.87018397    -0.57000
N1160       N  0.29782960  0.63589619  0.84069736    -0.36500
N1161       N  0.35265371  0.63784588  0.87437616    -0.57000
C1162       C  0.25468832  0.65997757  0.91455732     0.27100
C1163       C  0.31906746  0.65973116  0.91627641     0.27100
C1164       C  0.26901944  0.64740692  0.82767546     0.27100
C1165       C  0.33259240  0.63826054  0.82995692     0.27100
C1166       C  0.20793650  0.64110306  0.88662571     0.35700
C1167       C  0.21298761  0.63758345  0.85258608     0.35700
C1168       C  0.37098354  0.63293764  0.89287305     0.35700
C1169       C  0.37539264  0.62084712  0.85940745     0.35700
C1170       C  0.26463760  0.68016266  0.93274412    -0.21700
C1171       C  0.30535095  0.68009541  0.93379556    -0.21700
C1172       C  0.28580701  0.65783510  0.80842791    -0.21700
C1173       C  0.32597698  0.65188218  0.80984527    -0.21700
C1174       C  0.17208455  0.62688360  0.87952759    -0.22800
C1175       C  0.17540591  0.62421271  0.85793381    -0.22800
C1176       C  0.40557665  0.61265151  0.88981534    -0.22800
C1177       C  0.40792573  0.60417161  0.86858571    -0.22800
C1178       C  0.21578970  0.65255171  0.90756608    -0.18100
C1179       C  0.35917012  0.65114491  0.91176777    -0.18100
C1180       C  0.36917782  0.62493204  0.83752631    -0.18100
C1181       C  0.22791541  0.64271545  0.83181654    -0.18100
H1182       H  0.24469238  0.69351773  0.94405334     0.14800
H1183       H  0.32270768  0.69273288  0.94631561     0.14800
H1184       H  0.27045579  0.66711139  0.79452542     0.14800
H1185       H  0.34766367  0.65609830  0.79735320     0.14800
H1186       H  0.14612561  0.61977921  0.88892330     0.13000
H1187       H  0.15252618  0.61402066  0.84744316     0.13000
H1188       H  0.42706416  0.60540487  0.90159140     0.13000
H1189       H  0.43178325  0.58907439  0.86073228     0.13000
H1190       H  0.28891608  0.62807510  0.89206853     0.26300
H1191       H  0.29334381  0.62147918  0.85486910     0.26300
O1192       O  0.08670332  0.92757551  0.74133497    -0.80000
O1193       O  0.07868328  0.58723335  0.77286713    -0.80000
O1194       O  0.11726507  0.53171193  0.70721020    -0.80000
O1195       O  0.10987181  0.97328928  0.78960876    -0.80000
O1196       O  0.10757518  0.56768264  0.73564357    -0.80100
O1197       O  0.06807330  0.92631942  0.78367214    -0.80000
O1198       O  0.11528297  0.54109263  0.78397616    -0.80000
O1199       O  0.12993625  0.97517174  0.73736804    -0.80000
C1200       C  0.12110257  0.93920702  0.73625907     1.09700
C1201       C  0.11110369  0.57615389  0.78047859     1.09600
C1202       C  0.12335230  0.56322010  0.71703403     1.09700
C1203       C  0.09960148  0.93908725  0.79238909     1.09600
O1204       O  0.99229654  0.96192731  0.77331129    -0.80000
O1205       O  0.03626026  0.59869837  0.73723671    -0.80100
O1206       O  0.06441347  0.97237154  0.71139697    -0.80000
O1207       O  0.03060667  0.54891403  0.79534031    -0.80000
O1208       O  0.00074884  0.55054483  0.76495387    -0.80000
O1209       O  0.01239668  0.95938693  0.73071080    -0.80000
O1210       O  0.02523482  0.97815638  0.80161804    -0.80000
O1211       O  0.04083944  0.54434134  0.71818025    -0.80000
Co1212     Co  0.04036715  0.94777666  0.75726126     1.51500
Co1213     Co  0.05265915  0.55386605  0.75035904     1.51700
Co1214     Co  0.08749622  0.01292076  0.73039230     1.51600
Co1215     Co  0.06957989  0.01277128  0.79032588     1.51500
O1216       O  0.06156814  0.00340545  0.75894738    -1.41900
C1217       C  0.99358489  0.96578029  0.79309425     1.09600
C1218       C  0.03006655  0.58016871  0.72026687     1.09700
C1219       C  0.03156286  0.95498943  0.71352811     1.09700
C1220       C  0.99976487  0.55547883  0.78472849     1.09600
N1221       N  0.28311399  0.61460405  0.17191010    -0.36500
N1222       N  0.22037589  0.61724325  0.14258410    -0.57000
N1223       N  0.27995974  0.63032744  0.10765078    -0.36500
N1224       N  0.34242407  0.62730371  0.13717194    -0.57000
C1225       C  0.25221250  0.59758579  0.18212667     0.27100
C1226       C  0.31604522  0.59636984  0.17808332     0.27100
C1227       C  0.24616944  0.62996419  0.09642131     0.27100
C1228       C  0.31114444  0.63656754  0.09414565     0.27100
C1229       C  0.19739640  0.61109657  0.16004068     0.35700
C1230       C  0.19672722  0.61400449  0.12561634     0.35700
C1231       C  0.36558646  0.62693756  0.15424403     0.35700
C1232       C  0.36465215  0.64066767  0.12093501     0.35700
C1233       C  0.26526776  0.56697053  0.19384972    -0.21700
C1234       C  0.30573100  0.56671286  0.19171391    -0.21700
C1235       C  0.25584181  0.63585635  0.07533376    -0.21700
C1236       C  0.29649403  0.63927493  0.07385639    -0.21700
C1237       C  0.15936732  0.60143903  0.15380253    -0.22800
C1238       C  0.15889830  0.60372285  0.13221047    -0.22800
C1239       C  0.40297474  0.64078468  0.14905146    -0.22800
C1240       C  0.40223605  0.65005325  0.12798328    -0.22800
C1241       C  0.21249368  0.60930000  0.18094714    -0.18100
C1242       C  0.35526068  0.60758896  0.17296293    -0.18100
C1243       C  0.35213905  0.64151556  0.09964335    -0.18100
C1244       C  0.20677693  0.62496448  0.10458780    -0.18100
H1245       H  0.24745795  0.54711200  0.20310206     0.14800
H1246       H  0.32531469  0.54690761  0.19934926     0.14800
H1247       H  0.23579909  0.63733461  0.06221974     0.14800
H1248       H  0.31310919  0.64380285  0.05938177     0.14800
H1249       H  0.13483502  0.59094255  0.16323844     0.13000
H1250       H  0.13343607  0.59833063  0.12240744     0.13000
H1251       H  0.42845116  0.64258695  0.15917317     0.13000
H1252       H  0.42695704  0.66113617  0.11881158     0.13000
H1253       H  0.28211600  0.63963532  0.16292909     0.26300
H1254       H  0.28062957  0.62786936  0.12396997     0.26300
N1255       N  0.30017608  0.88201796  0.16754460    -0.36500
N1256       N  0.24120284  0.87032709  0.13382177    -0.57000
N1257       N  0.30290175  0.85254110  0.10505971    -0.36500
N1258       N  0.36147990  0.86617028  0.13787147    -0.57000
C1259       C  0.26940250  0.90310949  0.17473896     0.27100
C1260       C  0.33280141  0.89341251  0.17829679     0.27100
C1261       C  0.27163570  0.85026501  0.09206388     0.27100
C1262       C  0.33568387  0.85554898  0.09284201     0.27100
C1263       C  0.21757574  0.87668127  0.15072825     0.35700
C1264       C  0.21891602  0.85206262  0.11914677     0.35700
C1265       C  0.38039047  0.85885699  0.15612876     0.35700
C1266       C  0.38442048  0.85211040  0.12203252     0.35700
C1267       C  0.28261740  0.92844253  0.19030894    -0.21700
C1268       C  0.32268558  0.92232668  0.19253093    -0.21700
C1269       C  0.28438308  0.85195375  0.07127877    -0.21700
C1270       C  0.32481107  0.85512152  0.07172520    -0.21700
C1271       C  0.17964547  0.86314364  0.14665215    -0.22800
C1272       C  0.18067087  0.84697124  0.12669997    -0.22800
C1273       C  0.41453792  0.83863448  0.15187965    -0.22800
C1274       C  0.41853896  0.83703912  0.13045046    -0.22800
C1275       C  0.22932154  0.89701330  0.16908569    -0.18100
C1276       C  0.37065661  0.87640801  0.17580400    -0.18100
C1277       C  0.37484057  0.85251154  0.10019041    -0.18100
C1278       C  0.23249855  0.84253352  0.09858182    -0.18100
H1279       H  0.26504910  0.94867371  0.19941734     0.14800
H1280       H  0.34202527  0.93728960  0.20341378     0.14800
H1281       H  0.26656570  0.84944034  0.05726145     0.14800
H1282       H  0.34377345  0.85458846  0.05789822     0.14800
H1283       H  0.15398524  0.86470958  0.15698985     0.13000
H1284       H  0.15597612  0.83389750  0.11851933     0.13000
H1285       H  0.43602259  0.82846578  0.16295727     0.13000
H1286       H  0.44424106  0.82609202  0.12240328     0.13000
H1287       H  0.29812184  0.85800191  0.15759497     0.26300
H1288       H  0.30227803  0.84598531  0.12101221     0.26300
C1289       C  0.13574001  0.63641288  0.79761384    -0.05600
C1290       C  0.14413891  0.60224427  0.78650249     0.00300
C1291       C  0.18361606  0.58856117  0.78620627    -0.08300
C1292       C  0.21056918  0.60434139  0.80043693    -0.05700
C1293       C  0.20088662  0.63541804  0.81367357     0.00300
C1294       C  0.16398318  0.65397099  0.81092644    -0.08200
C1295       C  0.15232543  0.69114533  0.82201697     0.62200
H1296       H  0.10608285  0.64785025  0.79722566     0.12900
H1297       H  0.23910175  0.59076243  0.80192045     0.12900
C1298       C  0.19872191  0.55610685  0.77212332     0.62400
F1299       F  0.14346143  0.71827361  0.80701012    -0.22700
F1300       F  0.18190404  0.70633662  0.83452306    -0.20100
F1301       F  0.11909057  0.68467036  0.83448661    -0.19700
F1302       F  0.23361244  0.56774520  0.76234255    -0.19800
F1303       F  0.17266495  0.54581996  0.75646020    -0.20100
F1304       F  0.20615870  0.52417413  0.78427938    -0.22800
C1305       C  0.39168815  0.58410974  0.80742857    -0.05600
C1306       C  0.40097947  0.61316225  0.82215429     0.00300
C1307       C  0.44056095  0.62698338  0.82308455    -0.08300
C1308       C  0.46991164  0.60753203  0.81147438    -0.05700
C1309       C  0.46101122  0.57728669  0.79734523     0.00300
C1310       C  0.42058636  0.56646519  0.79452144    -0.08200
C1311       C  0.40490838  0.53652511  0.77897808     0.62200
H1312       H  0.36124375  0.57423578  0.80637421     0.12900
H1313       H  0.00243748  0.61466790  0.81086435     0.12900
C1314       C  0.45359086  0.66220813  0.83568238     0.62400
F1315       F  0.38322147  0.50891127  0.78982625    -0.22700
F1316       F  0.43356852  0.51782344  0.76740620    -0.20100
F1317       F  0.38019055  0.55448063  0.76500658    -0.19700
F1318       F  0.47695105  0.65095353  0.85222928    -0.19800
F1319       F  0.42214917  0.68319306  0.84353497    -0.20100
F1320       F  0.97477417  0.68336045  0.81987336    -0.22800
C1321       C  0.15019330  0.91853612  0.84372092    -0.05600
C1322       C  0.18479968  0.89977169  0.83689732     0.00300
C1323       C  0.18678698  0.88668086  0.81549458    -0.08300
C1324       C  0.15698927  0.89768961  0.80130642    -0.05700
C1325       C  0.12315514  0.91763102  0.80811585     0.00300
C1326       C  0.11892005  0.92635075  0.82994612    -0.08200
C1327       C  0.08188265  0.94534334  0.83857974     0.62200
H1328       H  0.14820819  0.92809975  0.86001640     0.12900
H1329       H  0.16071131  0.89127752  0.78463432     0.12900
C1330       C  0.21901507  0.86079370  0.80674238     0.62400
F1331       F  0.08221165  0.45192994  0.85960344    -0.22700
F1332       F  0.04895954  0.92503586  0.83175150    -0.20100
F1333       F  0.08171027  0.48347926  0.82904638    -0.19700
F1334       F  0.24338001  0.84677813  0.82213210    -0.19800
F1335       F  0.24172106  0.88091650  0.79218578    -0.20100
F1336       F  0.20176673  0.82937557  0.79671537    -0.22800
C1337       C  0.40304323  0.90871828  0.82021491    -0.05600
C1338       C  0.39257244  0.93231351  0.83743778     0.00300
C1339       C  0.41492295  0.96649406  0.84126350    -0.08300
C1340       C  0.44660250  0.97616701  0.82741795    -0.05700
C1341       C  0.45730881  0.95240837  0.81020150     0.00300
C1342       C  0.43551021  0.91760250  0.80679050    -0.08200
C1343       C  0.44793052  0.88848526  0.78998048     0.62200
H1344       H  0.38633748  0.88225610  0.81789556     0.12900
H1345       H  0.46363168  0.00233158  0.83007164     0.12900
C1346       C  0.40578084  0.99223752  0.86016255     0.62400
F1347       F  0.42682311  0.85422438  0.79165749    -0.22700
F1348       F  0.48755553  0.88014605  0.79210310    -0.20100
F1349       F  0.44157288  0.90312028  0.77012845    -0.19700
F1350       F  0.41285498  0.97270175  0.87860730    -0.19800
F1351       F  0.36659959  0.00305027  0.85988655    -0.20100
F1352       F  0.42895943  0.02532926  0.86018941    -0.22800
C1353       C  0.11855471  0.67839985  0.08307101    -0.05600
C1354       C  0.10964929  0.65734654  0.06457966     0.00300
C1355       C  0.12902540  0.62167721  0.06113457    -0.08300
C1356       C  0.16076296  0.61193382  0.07439130    -0.05700
C1357       C  0.17293636  0.63629256  0.09105657     0.00300
C1358       C  0.15033032  0.66950598  0.09593599    -0.08200
C1359       C  0.15759365  0.69664767  0.11460015     0.62200
H1360       H  0.10208365  0.70413618  0.08700078     0.12900
H1361       H  0.17664520  0.58537846  0.07170699     0.12900
C1362       C  0.11523944  0.59317405  0.04445586     0.62400
F1363       F  0.15419782  0.73449196  0.10829440    -0.22700
F1364       F  0.19454601  0.69309469  0.12327934    -0.20100
F1365       F  0.12924662  0.68959515  0.13003739    -0.19700
F1366       F  0.12681849  0.60551734  0.02471912    -0.19800
F1367       F  0.07448593  0.58960539  0.04531990    -0.20100
F1368       F  0.13094711  0.55700547  0.04745573    -0.22800
C1369       C  0.37822813  0.68420396  0.07108472    -0.05600
C1370       C  0.38305627  0.65064005  0.08266391     0.00300
C1371       C  0.41767076  0.62842793  0.07834364    -0.08300
C1372       C  0.44729584  0.64291209  0.06423263    -0.05700
C1373       C  0.44166539  0.67605373  0.05205275     0.00300
C1374       C  0.40437823  0.69503998  0.05466506    -0.08200
C1375       C  0.38819631  0.72424807  0.03964162     0.62200
H1376       H  0.35214512  0.70135120  0.07419521     0.12900
H1377       H  0.47492246  0.62763957  0.06244739     0.12900
C1378       C  0.42498865  0.58930635  0.08790109     0.62400
F1379       F  0.34804599  0.71821303  0.03685522    -0.22700
F1380       F  0.40541557  0.72062908  0.02019280    -0.20100
F1381       F  0.39369060  0.76108183  0.04740192    -0.19700
F1382       F  0.39280231  0.57498014  0.09905350    -0.19800
F1383       F  0.45695132  0.59188354  0.10122947    -0.20100
F1384       F  0.43357615  0.56317892  0.07190310    -0.22800
C1385       C  0.18027124  0.76864781  0.06343197    -0.05600
C1386       C  0.15262665  0.79154814  0.05308496     0.00300
C1387       C  0.15282756  0.83206178  0.05703494    -0.08300
C1388       C  0.17882265  0.84748406  0.07223922    -0.05700
C1389       C  0.20523332  0.82420441  0.08300634     0.00300
C1390       C  0.20700813  0.78436337  0.07810488    -0.08200
C1391       C  0.23704747  0.75851971  0.08837981     0.62200
H1392       H  0.18044054  0.73795710  0.06020586     0.12900
H1393       H  0.17882155  0.87804046  0.07588470     0.12900
C1394       C  0.12641750  0.85933825  0.04519421     0.62400
F1395       F  0.23080681  0.72012635  0.08325430    -0.22700
F1396       F  0.23473703  0.76239054  0.11010220    -0.20100
F1397       F  0.27471736  0.76851507  0.08161997    -0.19700
F1398       F  0.08786987  0.85565169  0.05246155    -0.19800
F1399       F  0.12813493  0.85119592  0.02377664    -0.20100
F1400       F  0.13806263  0.89740582  0.04797301    -0.22800
C1401       C  0.42143259  0.80477727  0.08627956    -0.05600
C1402       C  0.40571579  0.84161162  0.08440926     0.00300
C1403       C  0.41932940  0.86563417  0.06763129    -0.08300
C1404       C  0.44413884  0.84929411  0.05197666    -0.05700
C1405       C  0.46106551  0.81316029  0.05499027     0.00300
C1406       C  0.45435656  0.79431402  0.07444371    -0.08200
C1407       C  0.98668638  0.77621015  0.08372223     0.62200
H1408       H  0.41147598  0.78611731  0.09895489     0.12900
H1409       H  0.45125473  0.86520563  0.03776532     0.12900
C1410       C  0.40890813  0.90776971  0.06539346     0.62400
F1411       F  0.99559838  0.79298627  0.10300586    -0.22700
F1412       F  0.02144568  0.77601336  0.07225453    -0.20100
F1413       F  0.46885226  0.73156982  0.08672297    -0.19700
F1414       F  0.38677638  0.92178911  0.08220303    -0.19800
F1415       F  0.38801099  0.91274481  0.04703029    -0.20100
F1416       F  0.44341978  0.92941305  0.06416086    -0.22800
C1417       C  0.20982227  0.81539993  0.95518170    -0.05600
C1418       C  0.19681358  0.84776864  0.94427371     0.00300
C1419       C  0.15889430  0.86258983  0.94950859    -0.08300
C1420       C  0.13353946  0.84121600  0.96304875    -0.05700
C1421       C  0.14577396  0.80734701  0.97304462     0.00300
C1422       C  0.18605851  0.79614801  0.97023200    -0.08200
C1423       C  0.20491167  0.76420543  0.98280651     0.62200
H1424       H  0.23909079  0.80470084  0.95151472     0.12900
H1425       H  0.10376464  0.85134849  0.96583918     0.12900
C1426       C  0.14390558  0.90086657  0.94172237     0.62400
F1427       F  0.19233121  0.72856212  0.97540868    -0.22700
F1428       F  0.19525220  0.76828669  0.00399385    -0.20100
F1429       F  0.24575544  0.76545182  0.98117006    -0.19700
F1430       F  0.11256677  0.89444832  0.92831481    -0.19800
F1431       F  0.17260797  0.92222957  0.93127136    -0.20100
F1432       F  0.13089859  0.92264411  0.95880742    -0.22800
C1433       C  0.42621194  0.80023797  0.95790093    -0.05600
C1434       C  0.46223310  0.82011433  0.96001574     0.00300
C1435       C  0.46494877  0.85846338  0.95281093    -0.08300
C1436       C  0.43246978  0.87420599  0.94203840    -0.05700
C1437       C  0.39749454  0.85269827  0.93837502     0.00300
C1438       C  0.39406638  0.81513451  0.94692265    -0.08200
C1439       C  0.35753414  0.78969737  0.94393025     0.62200
H1440       H  0.42344676  0.77210254  0.96457557     0.12900
H1441       H  0.43450685  0.90313239  0.93584866     0.12900
C1442       C  0.99973638  0.87846851  0.95965334     0.62400
F1443       F  0.36365594  0.75248332  0.95063699    -0.22700
F1444       F  0.34758871  0.78790399  0.92286376    -0.20100
F1445       F  0.32612903  0.80393011  0.95556695    -0.19700
F1446       F  0.03342708  0.86402786  0.95006382    -0.19800
F1447       F  0.00302502  0.87559953  0.98132290    -0.20100
F1448       F  0.99688405  0.91708265  0.95470151    -0.22800
C1449       C  0.12361805  0.69717863  0.93215011    -0.05600
C1450       C  0.11771311  0.67492748  0.95046402     0.00300
C1451       C  0.14324580  0.64318926  0.95368643    -0.08300
C1452       C  0.17426854  0.63634451  0.93901992    -0.05700
C1453       C  0.18168187  0.66089017  0.92194817     0.00300
C1454       C  0.15627039  0.69223853  0.91858737    -0.08200
C1455       C  0.16303593  0.72186311  0.90133434     0.62200
H1456       H  0.10395544  0.72082235  0.92906154     0.12900
H1457       H  0.19412496  0.61249225  0.94117162     0.12900
C1458       C  0.13973313  0.61785979  0.97293297     0.62400
F1459       F  0.20215343  0.72441567  0.89489898    -0.22700
F1460       F  0.15243378  0.75806714  0.90862693    -0.20100
F1461       F  0.14001579  0.71233131  0.88416170    -0.19700
F1462       F  0.16470222  0.58655718  0.97165653    -0.19800
F1463       F  0.10149933  0.60377825  0.97506170    -0.20100
F1464       F  0.14988801  0.63936494  0.99054181    -0.22800
C1465       C  0.44135429  0.70924730  0.93794158    -0.05600
C1466       C  0.44377514  0.69065597  0.95735757     0.00300
C1467       C  0.42166621  0.65653613  0.96097803    -0.08300
C1468       C  0.39489523  0.64380615  0.94551660    -0.05700
C1469       C  0.39037302  0.66402900  0.92666692     0.00300
C1470       C  0.41461780  0.69678886  0.92248883    -0.08200
C1471       C  0.41200983  0.71891242  0.90199583     0.62200
H1472       H  0.45954086  0.73467223  0.93532641     0.12900
H1473       H  0.37672656  0.61838221  0.94815587     0.12900
C1474       C  0.42732299  0.63333830  0.98080877     0.62400
F1475       F  0.43350257  0.75308874  0.90269269    -0.22700
F1476       F  0.37318630  0.72780942  0.89785042    -0.20100
F1477       F  0.42699640  0.69670921  0.88565268    -0.19700
F1478       F  0.41430826  0.65398589  0.99822779    -0.19800
F1479       F  0.46699416  0.62527568  0.98301205    -0.20100
F1480       F  0.40660884  0.59875045  0.98012882    -0.22800
C1481       C  0.42591690  0.89087343  0.22853817    -0.05600
C1482       C  0.46369070  0.90269224  0.22133614     0.00300
C1483       C  0.47272985  0.89777043  0.19958324    -0.08300
C1484       C  0.44136139  0.89154603  0.18555998    -0.05700
C1485       C  0.40268845  0.88149993  0.19238470     0.00300
C1486       C  0.39653389  0.87700199  0.21454283    -0.08200
C1487       C  0.36083092  0.85689204  0.22435239     0.62200
H1488       H  0.41931676  0.89233416  0.24529869     0.12900
H1489       H  0.44712911  0.89631081  0.16897364     0.12900
C1490       C  0.02231609  0.91558847  0.18732699     0.62400
F1491       F  0.37370187  0.82821349  0.23751913    -0.22700
F1492       F  0.33652593  0.83951744  0.20963992    -0.20100
F1493       F  0.33913882  0.88303082  0.23620020    -0.19700
F1494       F  0.05175636  0.90583026  0.20119985    -0.19800
F1495       F  0.02728546  0.95351434  0.18146170    -0.20100
F1496       F  0.02643363  0.89237845  0.16960231    -0.22800
C1497       C  0.15365300  0.91120362  0.21308557    -0.05600
C1498       C  0.13706920  0.94672271  0.20768010     0.00300
C1499       C  0.14998949  0.96507055  0.18871225    -0.08300
C1500       C  0.18017271  0.94768382  0.17658884    -0.05700
C1501       C  0.19772136  0.91334685  0.18278575     0.00300
C1502       C  0.18396222  0.89431051  0.20105316    -0.08200
C1503       C  0.20145975  0.85643051  0.20789495     0.62200
H1504       H  0.14338888  0.89691888  0.22726406     0.12900
H1505       H  0.19101115  0.96104263  0.16223325     0.12900
C1506       C  0.13358868  0.00319892  0.18138793     0.62400
F1507       F  0.24075235  0.86190713  0.21287739    -0.22700
F1508       F  0.19855043  0.82950111  0.19175421    -0.20100
F1509       F  0.18211857  0.84164760  0.22547189    -0.19700
F1510       F  0.15024124  0.01471563  0.16237705    -0.19800
F1511       F  0.13791024  0.53277336  0.19712336    -0.20100
F1512       F  0.09323867  0.00012814  0.17861671    -0.22800
C1513       C  0.42548199  0.58524255  0.21727668    -0.05600
C1514       C  0.44099995  0.55015346  0.20991663     0.00300
C1515       C  0.43114197  0.53632760  0.18950049    -0.08300
C1516       C  0.40377400  0.55671370  0.17781145    -0.05700
C1517       C  0.38733747  0.59092591  0.18543384     0.00300
C1518       C  0.39921333  0.60647298  0.20505506    -0.08200
C1519       C  0.38482382  0.64550859  0.21264011     0.62200
H1520       H  0.43439666  0.59602318  0.23262437     0.12900
H1521       H  0.39451964  0.54545997  0.16259369     0.12900
C1522       C  0.97150315  0.53201956  0.17473748     0.62400
F1523       F  0.40157151  0.65629585  0.23165498    -0.22700
F1524       F  0.34425132  0.64462399  0.21532802    -0.20100
F1525       F  0.39488381  0.67310748  0.19785703    -0.19700
F1526       F  0.96588494  0.49473706  0.18117857    -0.19800
F1527       F  0.01042209  0.54307338  0.17755355    -0.20100
F1528       F  0.96383447  0.53342135  0.15334163    -0.22800
C1529       C  0.17424864  0.58666016  0.23659569    -0.05600
C1530       C  0.13322339  0.58595722  0.23343308     0.00300
C1531       C  0.11894944  0.60884319  0.21671058    -0.08300
C1532       C  0.14580003  0.62005467  0.20045134    -0.05700
C1533       C  0.18620010  0.61043774  0.20104046     0.00300
C1534       C  0.20027791  0.60357777  0.22177495    -0.08200
C1535       C  0.23821707  0.62089654  0.23038883     0.62200
H1536       H  0.18592844  0.57535027  0.25110318     0.12900
H1537       H  0.13497890  0.63622911  0.18731965     0.12900
C1538       C  0.07619619  0.62042117  0.21517915     0.62400
F1539       F  0.22925787  0.64279329  0.24816123    -0.22700
F1540       F  0.25676870  0.64520054  0.21613885    -0.20100
F1541       F  0.26374749  0.59218280  0.23619645    -0.19700
F1542       F  0.06070642  0.62887480  0.23495966    -0.19800
F1543       F  0.05482140  0.59095515  0.20594811    -0.20100
F1544       F  0.07246007  0.65303245  0.20299207    -0.22800
C1545       C  0.19844550  0.62613430  0.68590375    -0.05600
C1546       C  0.17972075  0.66241673  0.68644232     0.00300
C1547       C  0.14427414  0.66584272  0.69869140    -0.08300
C1548       C  0.12897077  0.63313462  0.70929909    -0.05700
C1549       C  0.14572227  0.59639911  0.70720366     0.00300
C1550       C  0.18140906  0.59285904  0.69543735    -0.08200
C1551       C  0.20128012  0.55411703  0.69288842     0.62200
H1552       H  0.22564117  0.62355069  0.67683829     0.12900
H1553       H  0.10222375  0.63573286  0.71872873     0.12900
C1554       C  0.12116318  0.70314238  0.70030029     0.62400
F1555       F  0.23827438  0.55754898  0.68349041    -0.22700
F1556       F  0.17841855  0.53010476  0.68035689    -0.20100
F1557       F  0.20579914  0.53745152  0.71243473    -0.19700
F1558       F  0.11794615  0.72007043  0.68075707    -0.19800
F1559       F  0.13946343  0.72849258  0.71403771    -0.20100
F1560       F  0.08334824  0.69662415  0.70803253    -0.22800
C1561       C  0.15477599  0.84688653  0.70869067    -0.05600
C1562       C  0.18599192  0.86018276  0.69589569     0.00300
C1563       C  0.20127640  0.89795880  0.69980143    -0.08300
C1564       C  0.18064733  0.92277349  0.71385759    -0.05700
C1565       C  0.14756028  0.91007687  0.72565876     0.00300
C1566       C  0.13683234  0.87005447  0.72429100    -0.08200
C1567       C  0.10538722  0.85094828  0.73823194     0.62200
H1568       H  0.14334718  0.81801593  0.70591189     0.12900
H1569       H  0.19022395  0.95258414  0.71528405     0.12900
C1570       C  0.23899764  0.91351835  0.68975714     0.62400
F1571       F  0.06813304  0.85848804  0.73065559    -0.22700
F1572       F  0.10840216  0.86398437  0.75883681    -0.20100
F1573       F  0.10978992  0.81132233  0.73857702    -0.19700
F1574       F  0.22998907  0.94249377  0.67586127    -0.19800
F1575       F  0.26023512  0.88544236  0.67912291    -0.20100
F1576       F  0.26299016  0.92873307  0.70534390    -0.22800
C1577       C  0.04056874  0.60835564  0.68555117    -0.05600
C1578       C  0.01426323  0.60115444  0.70229009     0.00300
C1579       C  0.47228869  0.62555738  0.70614362    -0.08300
C1580       C  0.46334617  0.65087398  0.68971230    -0.05700
C1581       C  0.48820500  0.65454767  0.67192346     0.00300
C1582       C  0.03252111  0.63592785  0.67022138    -0.08200
C1583       C  0.06292670  0.64415886  0.65294061     0.62200
H1584       H  0.06847772  0.59344103  0.68515732     0.12900
H1585       H  0.43783316  0.66935164  0.69101625     0.12900
C1586       C  0.44508648  0.62284136  0.72535104     0.62400
F1587       F  0.09778215  0.62467224  0.65610202    -0.22700
F1588       F  0.07176158  0.68308971  0.65239253    -0.20100
F1589       F  0.04819577  0.63268869  0.63362235    -0.19700
F1590       F  0.41119189  0.64424759  0.72293479    -0.19800
F1591       F  0.46409631  0.63649520  0.74312960    -0.20100
F1592       F  0.43388417  0.58484077  0.72839759    -0.22800
C1593       C  0.48444007  0.89836335  0.70692858    -0.05600
C1594       C  0.01900793  0.92488312  0.69766495     0.00300
C1595       C  0.03873662  0.91875389  0.67785378    -0.08300
C1596       C  0.02821478  0.88625689  0.66552626    -0.05700
C1597       C  0.49435871  0.85879882  0.67540700     0.00300
C1598       C  0.47253377  0.86695764  0.69413081    -0.08200
C1599       C  0.43645223  0.84407419  0.70136275     0.62200
H1600       H  0.46857333  0.90339380  0.72165116     0.12900
H1601       H  0.04358783  0.88054760  0.65074036     0.12900
C1602       C  0.07067663  0.94591508  0.66934214     0.62400
F1603       F  0.40638118  0.86915509  0.70678375    -0.22700
F1604       F  0.44598710  0.82299868  0.71894050    -0.20100
F1605       F  0.42212443  0.81918392  0.68606372    -0.19700
F1606       F  0.10449852  0.94312946  0.68121186    -0.19800
F1607       F  0.05725101  0.98343220  0.66989176    -0.20100
F1608       F  0.08092014  0.93728939  0.64860635    -0.22800
C1609       C  0.40511631  0.64561835  0.53747887    -0.05600
C1610       C  0.42454302  0.61046967  0.53383599     0.00300
C1611       C  0.46175049  0.60478282  0.54330119    -0.08300
C1612       C  0.47509352  0.63173522  0.55846634    -0.05700
C1613       C  0.45336951  0.66481982  0.56364146     0.00300
C1614       C  0.41832281  0.67265028  0.55248218    -0.08200
C1615       C  0.39357458  0.70834092  0.55690610     0.62200
H1616       H  0.37735436  0.65058188  0.52972992     0.12900
H1617       H  0.50251929  0.62667062  0.56658874     0.12900
C1618       C  0.48829731  0.57110033  0.53797730     0.62400
F1619       F  0.35642239  0.70521311  0.54811000    -0.22700
F1620       F  0.41208112  0.74029331  0.54833487    -0.20100
F1621       F  0.38834808  0.71401356  0.57837687    -0.19700
F1622       F  0.47651948  0.55130777  0.52005553    -0.19800
F1623       F  0.48857637  0.54603355  0.55478615    -0.20100
F1624       F  0.52640215  0.58453006  0.53428808    -0.22800
C1625       C  0.41546825  0.83900314  0.56179176    -0.05600
C1626       C  0.45274228  0.85093975  0.56872189     0.00300
C1627       C  0.46945557  0.88584214  0.56170447    -0.08300
C1628       C  0.44536088  0.91089550  0.55054057    -0.05700
C1629       C  0.40597256  0.90092864  0.54550194     0.00300
C1630       C  0.39215187  0.86279254  0.54947944    -0.08200
C1631       C  0.35339942  0.84678242  0.54109756     0.62200
H1632       H  0.40419392  0.81119917  0.56683479     0.12900
H1633       H  0.45701466  0.93895549  0.54625391     0.12900
C1634       C  0.51226279  0.89625383  0.56607136     0.62400
F1635       F  0.34872730  0.80786256  0.54519933    -0.22700
F1636       F  0.35249412  0.85110225  0.51944928    -0.20100
F1637       F  0.32204001  0.86590902  0.55040198    -0.19700
F1638       F  0.52440662  0.92856505  0.55501213    -0.19800
F1639       F  0.53627311  0.86602236  0.55995565    -0.20100
F1640       F  0.51726495  0.90354864  0.58734555    -0.22800
C1641       C  0.30512821  0.62999129  0.57238843    -0.05600
C1642       C  0.28355243  0.62373684  0.55383660     0.00300
C1643       C  0.24866170  0.64551732  0.55063123    -0.08300
C1644       C  0.23717143  0.67282275  0.56603531    -0.05700
C1645       C  0.25872720  0.67876578  0.58446498     0.00300
C1646       C  0.29324966  0.65712171  0.58782770    -0.08200
C1647       C  0.31745901  0.66282332  0.60762478     0.62200
H1648       H  0.33176423  0.61362463  0.57465017     0.12900
H1649       H  0.21085763  0.68977352  0.56395503     0.12900
C1650       C  0.22256883  0.63945993  0.53153813     0.62400
F1651       F  0.35181354  0.64156097  0.60690520    -0.22700
F1652       F  0.29560836  0.65132075  0.62507101    -0.20100
F1653       F  0.32783096  0.70125975  0.60995146    -0.19700
F1654       F  0.21331236  0.60072911  0.52933659    -0.19800
F1655       F  0.24181766  0.65252691  0.51355876    -0.20100
F1656       F  0.18741113  0.65929139  0.53349553    -0.22800
C1657       C  0.23724759  0.91056508  0.55253047    -0.05600
C1658       C  0.25938741  0.94227400  0.56018860     0.00300
C1659       C  0.26507041  0.94477641  0.58248442    -0.08300
C1660       C  0.25379525  0.91347136  0.59543415    -0.05700
C1661       C  0.23355670  0.88080423  0.58768512     0.00300
C1662       C  0.22281844  0.88078439  0.56594705    -0.08200
C1663       C  0.19632479  0.85029890  0.55599821     0.62200
H1664       H  0.23193828  0.90832081  0.53572951     0.12900
H1665       H  0.26186970  0.91408296  0.61192290     0.12900
C1666       C  0.28480747  0.97929661  0.59306326     0.62400
F1667       F  0.16730759  0.86805387  0.54452059    -0.22700
F1668       F  0.17751498  0.82719107  0.57073893    -0.20100
F1669       F  0.21849028  0.82742753  0.54245058    -0.19700
F1670       F  0.27501337  0.01310044  0.58308970    -0.19800
F1671       F  0.32537353  0.97485239  0.59258410    -0.20100
F1672       F  0.27262013  0.98278487  0.61394328    -0.22800
C1673       C  0.11671041  0.61482958  0.34202575    -0.05600
C1674       C  0.15341178  0.63247503  0.33854525     0.00300
C1675       C  0.18068269  0.61537701  0.32409585    -0.08300
C1676       C  0.16868176  0.58223090  0.31247726    -0.05700
C1677       C  0.13231695  0.56393164  0.31685550     0.00300
C1678       C  0.10791678  0.57877859  0.33339988    -0.08200
C1679       C  0.07301676  0.55718311  0.34314577     0.62200
H1680       H  0.09667254  0.62720958  0.35370110     0.12900
H1681       H  0.18722497  0.57075693  0.29990886     0.12900
C1682       C  0.22208710  0.63170722  0.32132606     0.62400
F1683       F  0.07520460  0.55929986  0.36493227    -0.22700
F1684       F  0.07259747  0.51859095  0.33771829    -0.20100
F1685       F  0.03814391  0.57378565  0.33696173    -0.19700
F1686       F  0.24393017  0.61068863  0.30670089    -0.19800
F1687       F  0.24142969  0.63086931  0.34040326    -0.20100
F1688       F  0.22045155  0.66933007  0.31450723    -0.22800
C1689       C  0.15978174  0.84937395  0.32598389    -0.05600
C1690       C  0.13418734  0.83529243  0.34180117     0.00300
C1691       C  0.09588106  0.85148839  0.34378971    -0.08300
C1692       C  0.08602464  0.88319614  0.33109019    -0.05700
C1693       C  0.11170581  0.89768590  0.31535009     0.00300
C1694       C  0.14886403  0.87923756  0.31222459    -0.08200
C1695       C  0.17713105  0.89055870  0.29445871     0.62200
H1696       H  0.18853193  0.83620803  0.32435476     0.12900
H1697       H  0.05712049  0.89597516  0.33302379     0.12900
C1698       C  0.06373511  0.83601067  0.35845250     0.62400
F1699       F  0.21282632  0.87159875  0.29563916    -0.22700
F1700       F  0.18493969  0.92972488  0.29528684    -0.20100
F1701       F  0.16051653  0.88099039  0.27525702    -0.19700
F1702       F  0.05255384  0.86462807  0.37257361    -0.19800
F1703       F  0.07510099  0.80429124  0.36978269    -0.20100
F1704       F  0.03131199  0.82525691  0.34659350    -0.22800
C1705       C  0.21835813  0.59301754  0.47327177    -0.05600
C1706       C  0.24227145  0.56550234  0.46299371     0.00300
C1707       C  0.24822043  0.56886480  0.44082745    -0.08300
C1708       C  0.23873514  0.60333039  0.43103530    -0.05700
C1709       C  0.21527522  0.63118585  0.44110782     0.00300
C1710       C  0.20280086  0.62480581  0.46231610    -0.08200
C1711       C  0.17264322  0.65057301  0.47311795     0.62200
H1712       H  0.21247317  0.58987723  0.48995512     0.12900
H1713       H  0.24729119  0.60739230  0.41465024     0.12900
C1714       C  0.26261479  0.53586364  0.42695670     0.62400
F1715       F  0.16071888  0.63606328  0.49246633    -0.22700
F1716       F  0.13954042  0.65323714  0.46067917    -0.20100
F1717       F  0.18838024  0.68695743  0.47642802    -0.19700
F1718       F  0.24796245  0.53865502  0.40672644    -0.19800
F1719       F  0.30344015  0.53625855  0.42560596    -0.20100
F1720       F  0.24918496  0.50120781  0.43507457    -0.22800
C1721       C  0.24007080  0.86764569  0.47204179    -0.05600
C1722       C  0.27117921  0.88966797  0.46315161     0.00300
C1723       C  0.28080458  0.88424375  0.44135791    -0.08300
C1724       C  0.26020110  0.85569132  0.42987729    -0.05700
C1725       C  0.22939831  0.83388467  0.43890724     0.00300
C1726       C  0.21827577  0.84063587  0.46022865    -0.08200
C1727       C  0.18360187  0.82100717  0.47136087     0.62200
H1728       H  0.23190798  0.87205115  0.48849104     0.12900
H1729       H  0.26785356  0.85000220  0.41349883     0.12900
C1730       C  0.31238246  0.90778559  0.42990095     0.62400
F1731       F  0.15879025  0.84884716  0.47971072    -0.22700
F1732       F  0.19750726  0.79896556  0.48767915    -0.20100
F1733       F  0.16137694  0.79757472  0.45824669    -0.19700
F1734       F  0.34822181  0.90419083  0.43963771    -0.19800
F1735       F  0.30205601  0.94602088  0.42986364    -0.20100
F1736       F  0.31713271  0.89618005  0.40906945    -0.22800
C1737       C  0.49262687  0.66582165  0.30806057    -0.05600
C1738       C  0.45260346  0.66763201  0.31399980     0.00300
C1739       C  0.42648335  0.63875770  0.30589745    -0.08300
C1740       C  0.44242983  0.60624192  0.29530447    -0.05700
C1741       C  0.48313894  0.60272476  0.29110495     0.00300
C1742       C  0.50810236  0.63474262  0.29612883    -0.08200
C1743       C  0.55101211  0.63831713  0.28942107     0.62200
H1744       H  0.51254946  0.68838388  0.31352383     0.12900
H1745       H  0.42286103  0.58263508  0.29089404     0.12900
C1746       C  0.38190405  0.64002313  0.30862443     0.62400
F1747       F  0.55589691  0.67099416  0.27729871    -0.22700
F1748       F  0.56385064  0.60730038  0.27764216    -0.20100
F1749       F  0.57432328  0.64213150  0.30703707    -0.19700
F1750       F  0.36912935  0.67349306  0.31841003    -0.19800
F1751       F  0.36900521  0.60889139  0.32041847    -0.20100
F1752       F  0.36466975  0.63773039  0.28897157    -0.22800
C1753       C  0.44061884  0.90319931  0.33614688    -0.05600
C1754       C  0.41939978  0.87108816  0.32840989     0.00300
C1755       C  0.39865096  0.87570476  0.30914469    -0.08300
C1756       C  0.40612308  0.90921413  0.29690308    -0.05700
C1757       C  0.42910040  0.94036397  0.30452632     0.00300
C1758       C  0.44158649  0.93855886  0.32568133    -0.08200
C1759       C  0.46034039  0.97251100  0.33681641     0.62200
H1760       H  0.45616092  0.90108035  0.35093151     0.12900
H1761       H  0.39533582  0.91027251  0.28090267     0.12900
C1762       C  0.36851581  0.84695684  0.30078074     0.62400
F1763       F  0.44706291  0.97422011  0.35755774    -0.22700
F1764       F  0.45025626  0.00664598  0.32734856    -0.20100
F1765       F  0.00821258  0.94757971  0.34971218    -0.19700
F1766       F  0.35996131  0.81756009  0.31469531    -0.19800
F1767       F  0.38231694  0.83114186  0.28202787    -0.20100
F1768       F  0.33359913  0.86590200  0.29701048    -0.22800
C1769       C  0.35860245  0.62639830  0.44312191    -0.05600
C1770       C  0.38459530  0.60375572  0.45462814     0.00300
C1771       C  0.42594890  0.60633077  0.45024908    -0.08300
C1772       C  0.43956396  0.63181717  0.43453625    -0.05700
C1773       C  0.41343392  0.65432360  0.42316440     0.00300
C1774       C  0.37224649  0.65139235  0.42725335    -0.08200
C1775       C  0.34276663  0.67454710  0.41485092     0.62200
H1776       H  0.32718702  0.62364884  0.44633317     0.12900
H1777       H  0.47084143  0.63452261  0.43095085     0.12900
C1778       C  0.45589362  0.58310494  0.46223780     0.62400
F1779       F  0.34533053  0.66488697  0.39367708    -0.22700
F1780       F  0.35049897  0.71349805  0.41738062    -0.20100
F1781       F  0.30431671  0.66743949  0.42144861    -0.19700
F1782       F  0.45270984  0.54464921  0.45662269    -0.19800
F1783       F  0.44933769  0.58736260  0.48369314    -0.20100
F1784       F  0.49430695  0.59501869  0.45789833    -0.22800
C1785       C  0.45521384  0.87558846  0.43956053    -0.05600
C1786       C  0.42980568  0.84368790  0.43667167     0.00300
C1787       C  0.39888193  0.83699323  0.45155963    -0.08300
C1788       C  0.39444402  0.86277010  0.46865057    -0.05700
C1789       C  0.41592780  0.89770950  0.46984444     0.00300
C1790       C  0.44869859  0.90298586  0.45587376    -0.08200
C1791       C  0.47544483  0.93821029  0.45712487     0.62200
H1792       H  0.47886979  0.88019016  0.42814535     0.12900
H1793       H  0.37012310  0.85817957  0.47958373     0.12900
C1794       C  0.36758039  0.80566532  0.44821532     0.62400
F1795       F  0.51212145  0.93087280  0.44810620    -0.22700
F1796       F  0.48127940  0.94897539  0.47795377    -0.20100
F1797       F  0.45860564  0.96825102  0.44641785    -0.19700
F1798       F  0.38371413  0.76962492  0.45025996    -0.19800
F1799       F  0.35172041  0.80888773  0.42831728    -0.20100
F1800       F  0.33680723  0.80846705  0.46274289    -0.22800
N1801       N  0.92659780  0.24782655  0.40816497    -0.36500
N1802       N  0.92398201  0.31229652  0.38099684    -0.57000
N1803       N  0.92707771  0.26007291  0.34424253    -0.36500
N1804       N  0.93210327  0.19544076  0.37259415    -0.57000
C1805       C  0.93566280  0.27630842  0.42200872     0.27100
C1806       C  0.93314624  0.21427454  0.41781895     0.27100
C1807       C  0.93458789  0.29519484  0.33574546     0.27100
C1808       C  0.94312747  0.23302604  0.33116992     0.27100
C1809       C  0.91464056  0.32953378  0.39963632     0.35700
C1810       C  0.90969415  0.33475770  0.36567731     0.35700
C1811       C  0.92359498  0.16955800  0.38787535     0.35700
C1812       C  0.93279745  0.17569372  0.35410274     0.35700
C1813       C  0.94978686  0.26058874  0.44043171    -0.21700
C1814       C  0.94729324  0.22116075  0.43794946    -0.21700
C1815       C  0.95581210  0.29045999  0.31706642    -0.21700
C1816       C  0.96057533  0.25133264  0.31398413    -0.21700
C1817       C  0.89463882  0.36335481  0.39622102    -0.22800
C1818       C  0.89076735  0.36632044  0.37472348    -0.22800
C1819       C  0.91983663  0.13299781  0.37924239    -0.22800
C1820       C  0.92688583  0.13665300  0.35793584    -0.22800
C1821       C  0.92460161  0.31496757  0.41960033    -0.18100
C1822       C  0.92134954  0.17831382  0.40966274    -0.18100
C1823       C  0.94099526  0.19234178  0.33408683    -0.18100
C1824       C  0.92056359  0.33091349  0.34404996    -0.18100
H1825       H  0.95795723  0.27586179  0.45472753     0.14800
H1826       H  0.95395248  0.20011205  0.44982104     0.14800
H1827       H  0.96658571  0.31281314  0.30663127     0.14800
H1828       H  0.97538141  0.23810002  0.30058168     0.14800
H1829       H  0.88417899  0.38377500  0.40795592     0.13000
H1830       H  0.87733312  0.39002856  0.36660917     0.13000
H1831       H  0.91412531  0.10636313  0.38753781     0.13000
H1832       H  0.92729899  0.11309027  0.34664446     0.13000
H1833       H  0.90990149  0.25038710  0.39459583     0.26300
H1834       H  0.90866015  0.25486879  0.35721957     0.26300
N1835       N  0.63852223  0.23018397  0.36501576    -0.36500
N1836       N  0.65792267  0.17428484  0.39770378    -0.57000
N1837       N  0.68178458  0.23431531  0.42611701    -0.36500
N1838       N  0.66461316  0.29093443  0.39270298    -0.57000
C1839       C  0.63831309  0.19728152  0.35329371     0.27100
C1840       C  0.63644242  0.26043821  0.35164318     0.27100
C1841       C  0.69673147  0.20312541  0.43581776     0.27100
C1842       C  0.70339343  0.26526971  0.43225265     0.27100
C1843       C  0.64270085  0.15017176  0.38298911     0.35700
C1844       C  0.65941466  0.15407345  0.41583591     0.35700
C1845       C  0.64729701  0.31298754  0.37799609     0.35700
C1846       C  0.67360380  0.31460838  0.40905856     0.35700
C1847       C  0.63487374  0.20692514  0.33219040    -0.21700
C1848       C  0.63369560  0.24660791  0.33115497    -0.21700
C1849       C  0.72790028  0.21441757  0.44846951    -0.21700
C1850       C  0.73203794  0.25372024  0.44627898    -0.21700
C1851       C  0.63473997  0.11443814  0.39196832    -0.22800
C1852       C  0.64402706  0.11738662  0.41279878    -0.22800
C1853       C  0.64531545  0.35083008  0.38509866    -0.22800
C1854       C  0.66196973  0.35185359  0.40474642    -0.22800
C1855       C  0.63838484  0.15897097  0.36128923    -0.18100
C1856       C  0.63602936  0.30007950  0.35760512    -0.18100
C1857       C  0.69583063  0.30395086  0.42680939    -0.18100
C1858       C  0.68259211  0.16491313  0.43333830    -0.18100
H1859       H  0.63348716  0.18754666  0.31880882     0.14800
H1860       H  0.63125831  0.26334418  0.31692412     0.14800
H1861       H  0.74580621  0.19625819  0.45820593     0.14800
H1862       H  0.75354850  0.27177955  0.45421887     0.14800
H1863       H  0.62444276  0.08818590  0.38447797     0.13000
H1864       H  0.64262989  0.09409745  0.42403014     0.13000
H1865       H  0.63375690  0.37531132  0.37683247     0.13000
H1866       H  0.66582578  0.37728412  0.41456467     0.13000
H1867       H  0.63627599  0.23175802  0.38134168     0.26300
H1868       H  0.65599502  0.23510463  0.41735317     0.26300
O1869       O  0.85393917  0.42070340  0.49355696    -0.80000
O1870       O  0.85642986  0.08006234  0.51621550    -0.80000
O1871       O  0.86714223  0.03855656  0.47135896    -0.80000
O1872       O  0.88490797  0.46151326  0.53623568    -0.80000
O1873       O  0.82262449  0.08060903  0.48110002    -0.80100
O1874       O  0.83574876  0.42122899  0.53046525    -0.80000
O1875       O  0.89169107  0.03678859  0.53042933    -0.80000
O1876       O  0.88896192  0.46086277  0.47564193    -0.80000
C1877       C  0.88323523  0.42714733  0.48173842     1.09700
C1878       C  0.88753288  0.07094355  0.52543288     1.09600
C1879       C  0.85355119  0.07210304  0.47039217     1.09700
C1880       C  0.87115002  0.42750311  0.53606690     1.09600
O1881       O  0.76597998  0.46762107  0.52667776    -0.80000
O1882       O  0.75483193  0.03521516  0.49627598    -0.80100
O1883       O  0.80171644  0.44495495  0.47059556    -0.80000
O1884       O  0.80956133  0.05865495  0.54509841    -0.80000
O1885       O  0.78219983  0.09519216  0.52013215    -0.80000
O1886       O  0.77886454  0.40970578  0.49780174    -0.80000
O1887       O  0.80761481  0.47653235  0.55221606    -0.80000
O1888       O  0.78409636  0.02520488  0.46600213    -0.80000
Co1889     Co  0.80995913  0.45074248  0.50761133     1.51500
Co1890     Co  0.80622534  0.05245547  0.50784805     1.51700
Co1891     Co  0.83118927  0.99372052  0.47276753     1.51600
Co1892     Co  0.84356688  0.00820361  0.53736284     1.51500
O1893       O  0.82948306  0.00082824  0.50556342    -1.41900
C1894       C  0.77427426  0.46437624  0.54609280     1.09600
C1895       C  0.75470532  0.03785436  0.47637241     1.09700
C1896       C  0.78033800  0.41633653  0.47798169     1.09700
C1897       C  0.78867869  0.08861122  0.53951260     1.09600
N1898       N  0.97361666  0.25278929  0.58410764    -0.36500
N1899       N  0.98526692  0.31433476  0.61522357    -0.57000
N1900       N  0.99019675  0.25635276  0.64690962    -0.36500
N1901       N  0.98072568  0.19483328  0.61463351    -0.57000
C1902       C  0.97885447  0.28382741  0.57191671     0.27100
C1903       C  0.97706563  0.22145866  0.57153298     0.27100
C1904       C  0.00405659  0.28776357  0.65750401     0.27100
C1905       C  0.00199556  0.22479605  0.65725633     0.27100
C1906       C  0.96942222  0.33424837  0.59932572     0.35700
C1907       C  0.98156649  0.33669648  0.63268938     0.35700
C1908       C  0.96562075  0.17286815  0.59887811     0.35700
C1909       C  0.97685114  0.17424880  0.63244089     0.35700
C1910       C  0.98693860  0.27233141  0.55128799    -0.21700
C1911       C  0.98623369  0.23264478  0.55108358    -0.21700
C1912       C  0.51288842  0.28047114  0.68051252    -0.21700
C1913       C  0.51390495  0.24071330  0.68035646    -0.21700
C1914       C  0.95615454  0.36970209  0.60664757    -0.22800
C1915       C  0.96434820  0.37142162  0.62781062    -0.22800
C1916       C  0.95240738  0.13781375  0.60668706    -0.22800
C1917       C  0.95997786  0.13852145  0.62798943    -0.22800
C1918       C  0.96819943  0.32117669  0.57818387    -0.18100
C1919       C  0.96521798  0.18416195  0.57751243    -0.18100
C1920       C  0.99211448  0.18598387  0.65210134    -0.18100
C1921       C  0.99546242  0.32656110  0.65271899    -0.18100
H1922       H  0.99040751  0.29067142  0.53765343     0.14800
H1923       H  0.98901241  0.21423365  0.53725897     0.14800
H1924       H  0.52577459  0.29936369  0.69231664     0.14800
H1925       H  0.52745195  0.22306463  0.69207062     0.14800
H1926       H  0.94230962  0.39211107  0.59769570     0.13000
H1927       H  0.95791916  0.39519823  0.63844869     0.13000
H1928       H  0.93920777  0.11410394  0.59797220     0.13000
H1929       H  0.95400227  0.11537646  0.63893486     0.13000
H1930       H  0.96010564  0.25343673  0.59923700     0.26300
H1931       H  0.96959499  0.25630305  0.63451296     0.26300
N1932       N  0.72442594  0.27156845  0.60793650    -0.36500
N1933       N  0.70858860  0.32695432  0.64071886    -0.57000
N1934       N  0.69813873  0.26294869  0.67078379    -0.36500
N1935       N  0.71700851  0.20805274  0.63901613    -0.57000
C1936       C  0.73441460  0.30488932  0.59797340     0.27100
C1937       C  0.74338037  0.24230922  0.59785473     0.27100
C1938       C  0.70430301  0.29371799  0.68363811     0.27100
C1939       C  0.70407203  0.23063820  0.68218275     0.27100
C1940       C  0.70304445  0.34950893  0.62363551     0.35700
C1941       C  0.69198540  0.34521798  0.65758877     0.35700
C1942       C  0.71879752  0.18870203  0.62047824     0.35700
C1943       C  0.69943112  0.18404816  0.65310286     0.35700
C1944       C  0.75969702  0.29644495  0.58126683    -0.21700
C1945       C  0.76544450  0.25712137  0.58117018    -0.21700
C1946       C  0.71554902  0.28080025  0.70332829    -0.21700
C1947       C  0.71573193  0.24092429  0.70233981    -0.21700
C1948       C  0.68256832  0.38224337  0.62972516    -0.22800
C1949       C  0.67551043  0.37950463  0.65116137    -0.22800
C1950       C  0.70246235  0.15214707  0.62271235    -0.22800
C1951       C  0.68953852  0.14941433  0.64331341    -0.22800
C1952       C  0.71956123  0.34223681  0.60314556    -0.18100
C1953       C  0.73842822  0.20240068  0.60222034    -0.18100
C1954       C  0.69532541  0.19267342  0.67492320    -0.18100
C1955       C  0.69403260  0.33227232  0.67882087    -0.18100
H1956       H  0.77205497  0.31645436  0.57006614     0.14800
H1957       H  0.78319080  0.24117451  0.56982906     0.14800
H1958       H  0.72140640  0.29828978  0.71719950     0.14800
H1959       H  0.72182452  0.22170177  0.71520888     0.14800
H1960       H  0.67399941  0.40584688  0.61980586     0.13000
H1961       H  0.66035951  0.40059314  0.66089741     0.13000
H1962       H  0.70023744  0.12977401  0.61074908     0.13000
H1963       H  0.67521008  0.12448771  0.65024172     0.13000
H1964       H  0.70271285  0.26835751  0.61958286     0.26300
H1965       H  0.68465751  0.26387791  0.65610892     0.26300
O1966       O  0.50575213  0.45707015  0.30433468    -0.80000
O1967       O  0.58333839  0.49086486  0.22002002    -0.80000
O1968       O  0.98460019  0.44396716  0.25153727    -0.80000
O1969       O  0.60726556  0.42723090  0.28224933    -0.80000
O1970       O  0.51673601  0.45656018  0.22742132    -0.80100
O1971       O  0.58348054  0.45734325  0.31040006    -0.80000
O1972       O  0.60117482  0.44469792  0.24044077    -0.80000
O1973       O  0.96052700  0.48422597  0.28237734    -0.80000
C1974       C  0.96993290  0.45991046  0.29650509     1.09700
C1975       C  0.60384011  0.46094219  0.22276283     1.09600
C1976       C  0.99379052  0.43824644  0.23283936     1.09700
C1977       C  0.59964893  0.42794554  0.30183077     1.09600
O1978       O  0.57680392  0.99835492  0.31479929    -0.80000
O1979       O  0.50456008  0.00800217  0.21388142    -0.80100
O1980       O  0.00099778  0.05474533  0.26650879    -0.80000
O1981       O  0.61894075  0.02580511  0.24751039    -0.80000
O1982       O  0.56004842  0.04398393  0.23830855    -0.80000
O1983       O  0.50696528  0.02560628  0.30102853    -0.80000
O1984       O  0.61112202  0.02748106  0.29019883    -0.80000
O1985       O  0.95145698  0.01329936  0.24149764    -0.80000
Co1986     Co  0.54441534  0.49756082  0.30033302     1.51500
Co1987     Co  0.53923405  0.50546812  0.24033427     1.51700
Co1988     Co  0.99894165  0.49805627  0.25819129     1.51600
Co1989     Co  0.61256527  0.47534495  0.26601239     1.51500
O1990       O  0.55211304  0.48305679  0.26960280    -1.41900
C1991       C  0.59891706  0.02587067  0.30907134     1.09600
C1992       C  0.96516614  0.03319073  0.22617131     1.09700
C1993       C  0.99542145  0.06435544  0.28545155     1.09700
C1994       C  0.59722987  0.04914859  0.23796369     1.09600
O1995       O  0.94475265  0.23144192  0.98930701    -0.80000
O1996       O  0.59063503  0.17109552  0.02644309    -0.80000
O1997       O  0.58082617  0.23270880  0.96234512    -0.80000
O1998       O  0.49739447  0.21845830  0.04730817    -0.80000
O1999       O  0.58921786  0.18322781  0.98246260    -0.80100
O2000       O  0.98215616  0.19625733  0.02128503    -0.80000
O2001       O  0.57747134  0.21016880  0.05295096    -0.80000
O2002       O  0.50389356  0.21882069  0.97042877    -0.80000
C2003       C  0.46574204  0.21636039  0.97118775     1.09700
C2004       C  0.59180805  0.17874797  0.04600348     1.09600
C2005       C  0.59463089  0.19926914  0.96479299     1.09700
C2006       C  0.97609580  0.20334721  0.04077416     1.09600
O2007       O  0.96358517  0.27628678  0.02567024    -0.80000
O2008       O  0.63099545  0.25504733  0.98918697    -0.80100
O2009       O  0.52534709  0.29054388  0.95821671    -0.80000
O2010       O  0.59267535  0.28743136  0.03901116    -0.80000
O2011       O  0.63468160  0.24183935  0.03143158    -0.80000
O2012       O  0.98836387  0.29545180  0.98724844    -0.80000
O2013       O  0.51655496  0.29893228  0.03404030    -0.80000
O2014       O  0.58622965  0.30024243  0.98703222    -0.80000
Co2015     Co  0.99168247  0.24312239  0.00368113     1.51500
Co2016     Co  0.60698122  0.21353682  0.00741819     1.51700
Co2017     Co  0.54385794  0.26097247  0.98157651     1.51600
Co2018     Co  0.54619102  0.25326448  0.04134717     1.51500
O2019       O  0.55190377  0.23838999  0.01058765    -1.41900
C2020       C  0.98007690  0.30445006  0.03501369     1.09600
C2021       C  0.62172080  0.28909332  0.98412827     1.09700
C2022       C  0.49626111  0.30319832  0.96897743     1.09700
C2023       C  0.62708177  0.27438620  0.03988831     1.09600
N2024       N  0.79739284  0.37371637  0.91464559    -0.36500
N2025       N  0.73264191  0.38184694  0.88608824    -0.57000
N2026       N  0.78964131  0.39744629  0.85183919    -0.36500
N2027       N  0.85418341  0.39118149  0.88165080    -0.57000
C2028       C  0.76661174  0.37744707  0.92836209     0.27100
C2029       C  0.83102258  0.37968001  0.92558722     0.27100
C2030       C  0.75506095  0.40681071  0.84272242     0.27100
C2031       C  0.81955917  0.41467806  0.84080571     0.27100
C2032       C  0.71317390  0.36601302  0.90277213     0.35700
C2033       C  0.70933696  0.37657671  0.86909571     0.35700
C2034       C  0.87856467  0.37542802  0.89586858     0.35700
C2035       C  0.87441564  0.39245766  0.86313900     0.35700
C2036       C  0.78087394  0.38695438  0.94819309    -0.21700
C2037       C  0.82161019  0.38847286  0.94642218    -0.21700
C2038       C  0.76311149  0.43007674  0.82546126    -0.21700
C2039       C  0.80375680  0.43500379  0.82425380    -0.21700
C2040       C  0.67727272  0.35079805  0.89634818    -0.22800
C2041       C  0.67482310  0.35742724  0.87505396    -0.22800
C2042       C  0.91438939  0.36642047  0.88628040    -0.22800
C2043       C  0.91200783  0.37789375  0.86564348    -0.25200
C2044       C  0.72684224  0.36717834  0.92386023    -0.18100
C2045       C  0.86943705  0.37178933  0.91764079    -0.18100
C2046       C  0.86064818  0.41018403  0.84467513    -0.18100
C2047       C  0.71695477  0.39242078  0.84884498    -0.18100
H2048       H  0.76377321  0.39067859  0.96260836     0.14800
H2049       H  0.84204311  0.39338189  0.95919046     0.14800
H2050       H  0.74196454  0.44186661  0.81468512     0.14800
H2051       H  0.81985727  0.45121730  0.81237120     0.14800
H2052       H  0.65481611  0.33704907  0.90602715     0.13000
H2053       H  0.65011421  0.34963461  0.86515589     0.13000
H2054       H  0.93992056  0.35367316  0.89341298     0.13000
H2055       H  0.93532416  0.37580329  0.85385142     0.13000
H2056       H  0.79600363  0.36141000  0.89961199     0.26300
H2057       H  0.79274181  0.37712589  0.86363940     0.26300
N2058       N  0.79123360  0.15473938  0.90134018    -0.36500
N2059       N  0.73577583  0.15152491  0.86730138    -0.57000
N2060       N  0.80081362  0.13862107  0.83757258    -0.36500
N2061       N  0.85632951  0.14459927  0.87076831    -0.57000
C2062       C  0.75773682  0.16613507  0.91142066     0.27100
C2063       C  0.82222407  0.16778849  0.91274966     0.27100
C2064       C  0.77171222  0.14901459  0.82446174     0.27100
C2065       C  0.83521209  0.13978003  0.82644772     0.27100
C2066       C  0.71086278  0.14582272  0.88382968     0.35700
C2067       C  0.71577256  0.14120038  0.84983220     0.35700
C2068       C  0.87543704  0.14245770  0.88924129     0.35700
C2069       C  0.87957272  0.12730760  0.85606373     0.35700
C2070       C  0.76738401  0.18572202  0.92981676    -0.21700
C2071       C  0.80804367  0.18688707  0.93062252    -0.21700
C2072       C  0.78792240  0.15733023  0.80476645    -0.21700
C2073       C  0.82803615  0.15122262  0.80599076    -0.21700
C2074       C  0.67477276  0.13186264  0.87690470    -0.22800
C2075       C  0.67795839  0.12860706  0.85532809    -0.22800
C2076       C  0.91105255  0.12374520  0.88637687    -0.22800
C2077       C  0.91348302  0.11371687  0.86534782    -0.22800
C2078       C  0.71882035  0.15817093  0.90458756    -0.18100
C2079       C  0.86267695  0.16046234  0.90811452    -0.18100
C2080       C  0.87217647  0.12792295  0.83413540    -0.18100
C2081       C  0.73072785  0.14528013  0.82900939    -0.18100
H2082       H  0.74727104  0.19780975  0.94146989     0.14800
H2083       H  0.82500660  0.19927578  0.94334416     0.14800
H2084       H  0.77220700  0.16536101  0.79074065     0.14800
H2085       H  0.84936283  0.15417240  0.79321602     0.14800
H2086       H  0.64869746  0.12554368  0.88637683     0.13000
H2087       H  0.65484509  0.11856918  0.84493568     0.13000
H2088       H  0.93319365  0.11854018  0.89815003     0.13000
H2089       H  0.93809700  0.09945467  0.85768161     0.13000
H2090       H  0.79271621  0.13604353  0.88846009     0.26300
H2091       H  0.79673786  0.12578982  0.85220182     0.26300
O2092       O  0.57943459  0.42533717  0.74213792    -0.80000
O2093       O  0.57641224  0.09046798  0.77515859    -0.80000
O2094       O  0.61542687  0.03213570  0.71019055    -0.80000
O2095       O  0.60487912  0.46996119  0.78936747    -0.80000
O2096       O  0.60651806  0.06863232  0.73855640    -0.80100
O2097       O  0.56144030  0.42412678  0.78467125    -0.80000
O2098       O  0.61217954  0.04463854  0.78710810    -0.80000
O2099       O  0.62289571  0.47279830  0.73792667    -0.80000
C2100       C  0.61386457  0.43682694  0.73683092     1.09700
C2101       C  0.60887822  0.07923364  0.78252040     1.09600
C2102       C  0.62256605  0.06340456  0.72008561     1.09700
C2103       C  0.59358285  0.43639262  0.79285203     1.09600
O2104       O  0.48683037  0.46200845  0.77494408    -0.80000
O2105       O  0.53614798  0.10184664  0.73949615    -0.80100
O2106       O  0.55649694  0.47153518  0.71295894    -0.80000
O2107       O  0.52713296  0.05318690  0.79776347    -0.80000
O2108       O  0.49859294  0.05420184  0.76688144    -0.80000
O2109       O  0.50483809  0.45857493  0.73238946    -0.80000
O2110       O  0.52085318  0.47635317  0.80314025    -0.80000
O2111       O  0.53930372  0.04763965  0.72058742    -0.80000
Co2112     Co  0.53372309  0.44636746  0.75857564     1.51500
Co2113     Co  0.55094492  0.05663394  0.75287819     1.51700
Co2114     Co  0.58038682  0.51119206  0.73191058     1.51600
Co2115     Co  0.56594852  0.51016528  0.79170406     1.51500
O2116       O  0.55599966  0.50151011  0.76058508    -1.41900
C2117       C  0.48850423  0.46544415  0.79470459     1.09600
C2118       C  0.52928690  0.08371995  0.72255285     1.09700
C2119       C  0.52346699  0.45470647  0.71504073     1.09700
C2120       C  0.49693527  0.05986713  0.78657963     1.09600
N2121       N  0.77802524  0.11307143  0.17016266    -0.36500
N2122       N  0.72046597  0.10988680  0.13777046    -0.57000
N2123       N  0.78424532  0.12179585  0.10474537    -0.36500
N2124       N  0.84084662  0.12843213  0.13740291    -0.57000
C2125       C  0.74648617  0.09612546  0.17999460     0.27100
C2126       C  0.81106673  0.09792382  0.17849771     0.27100
C2127       C  0.75138512  0.12362990  0.09283452     0.27100
C2128       C  0.81560394  0.13440514  0.09282892     0.27100
C2129       C  0.69596067  0.09964830  0.15394511     0.35700
C2130       C  0.70138154  0.10105185  0.11972930     0.35700
C2131       C  0.86173421  0.12966050  0.15537282     0.35700
C2132       C  0.86473600  0.14189995  0.12177823     0.35700
C2133       C  0.75954089  0.06893272  0.19401065    -0.21700
C2134       C  0.80022965  0.07031856  0.19326039    -0.21700
C2135       C  0.76193421  0.13581206  0.07278185    -0.21700
C2136       C  0.80228697  0.14158582  0.07259127    -0.21700
C2137       C  0.66253329  0.08151203  0.14587819    -0.22800
C2138       C  0.66544151  0.08356774  0.12433079    -0.22800
C2139       C  0.89884661  0.14548903  0.15137034    -0.22800
C2140       C  0.90063041  0.15356459  0.13015010    -0.22800
C2141       C  0.70613728  0.10301801  0.17563618    -0.18100
C2142       C  0.85066110  0.10971528  0.17395899    -0.18100
C2143       C  0.85517124  0.14198994  0.09996426    -0.18100
C2144       C  0.71199294  0.11494804  0.09955322    -0.18100
H2145       H  0.74154801  0.04963595  0.20351736     0.14800
H2146       H  0.81961788  0.05272430  0.20247417     0.14800
H2147       H  0.74260569  0.13992400  0.05954438     0.14800
H2148       H  0.81932813  0.15099940  0.05902419     0.14800
H2149       H  0.63929521  0.06621238  0.15422965     0.13000
H2150       H  0.64362471  0.07328382  0.11321176     0.13000
H2151       H  0.92276019  0.14913203  0.16241216     0.13000
H2152       H  0.92595964  0.16542951  0.12178093     0.13000
H2153       H  0.77698969  0.13589742  0.15959900     0.26300
H2154       H  0.78445241  0.11156199  0.12002127     0.26300
N2155       N  0.80300265  0.39824396  0.16493787    -0.36500
N2156       N  0.74383422  0.38000895  0.13248647    -0.57000
N2157       N  0.80568945  0.36852106  0.10255628    -0.36500
N2158       N  0.86486007  0.38904302  0.13417649    -0.57000
C2159       C  0.77057371  0.41566028  0.17307665     0.27100
C2160       C  0.83497557  0.41177832  0.17549875     0.27100
C2161       C  0.77413599  0.36156938  0.09018486     0.27100
C2162       C  0.83744053  0.37331897  0.08973349     0.27100
C2163       C  0.72031224  0.38470948  0.14962183     0.35700
C2164       C  0.72271415  0.35958196  0.11814264     0.35700
C2165       C  0.88518867  0.38314359  0.15216230     0.35700
C2166       C  0.88836445  0.37706830  0.11801481     0.35700
C2167       C  0.78216365  0.44101716  0.18901838    -0.21700
C2168       C  0.82283977  0.43839932  0.19060989    -0.21700
C2169       C  0.78566292  0.36227453  0.06917916    -0.21700
C2170       C  0.82556141  0.36945831  0.06885996    -0.21700
C2171       C  0.68357672  0.36790880  0.14599828    -0.22800
C2172       C  0.68529857  0.35153060  0.12612245    -0.22800
C2173       C  0.92113003  0.36640073  0.14731798    -0.22800
C2174       C  0.92439491  0.36554676  0.12587530    -0.22800
C2175       C  0.73083944  0.40603925  0.16789907    -0.18100
C2176       C  0.87405200  0.39799187  0.17234567    -0.18100
C2177       C  0.87719064  0.37401804  0.09643080    -0.18100
C2178       C  0.73619644  0.35057954  0.09747194    -0.18100
H2179       H  0.76315832  0.45866421  0.19890594     0.14800
H2180       H  0.84125074  0.45390210  0.20173594     0.14800
H2181       H  0.76760473  0.35631483  0.05553252     0.14800
H2182       H  0.84372592  0.36900958  0.05474791     0.14800
H2183       H  0.65824410  0.36739958  0.15660106     0.13000
H2184       H  0.66152383  0.33624945  0.11828129     0.13000
H2185       H  0.94378898  0.35730060  0.15799660     0.13000
H2186       H  0.95046620  0.35645969  0.11733545     0.13000
H2187       H  0.80293562  0.37469235  0.15457713     0.26300
H2188       H  0.80662444  0.36367509  0.11871090     0.26300
C2189       C  0.63770956  0.14054927  0.79604218    -0.05600
C2190       C  0.64349390  0.10437964  0.78650273     0.00300
C2191       C  0.68210191  0.08842231  0.78617046    -0.08300
C2192       C  0.71073647  0.10477110  0.79915293    -0.05700
C2193       C  0.70334929  0.13788868  0.81118528     0.00300
C2194       C  0.66766416  0.15820395  0.80813705    -0.08200
C2195       C  0.65921432  0.19734964  0.81787333     0.62200
H2196       H  0.60876100  0.15355546  0.79559562     0.12900
H2197       H  0.73852708  0.08991755  0.80091418     0.12900
C2198       C  0.69440751  0.05260777  0.77383351     0.62400
F2199       F  0.65047267  0.22280589  0.80198906    -0.22700
F2200       F  0.69088461  0.21240387  0.82890423    -0.20100
F2201       F  0.62698418  0.19450747  0.83143957    -0.19700
F2202       F  0.72920081  0.06031299  0.76288142    -0.19800
F2203       F  0.66691006  0.04065411  0.75927730    -0.20100
F2204       F  0.70086000  0.02286217  0.78770359    -0.22800
C2205       C  0.89485868  0.08309828  0.80571319    -0.05600
C2206       C  0.90354132  0.11493202  0.81877853     0.00300
C2207       C  0.94196056  0.13161071  0.81761850    -0.08300
C2208       C  0.97146133  0.11242163  0.80589976    -0.05700
C2209       C  0.96340040  0.07943283  0.79356024     0.00300
C2210       C  0.92350930  0.06588451  0.79240962    -0.08200
C2211       C  0.90835511  0.03381032  0.77805124     0.62200
H2212       H  0.86507484  0.07121145  0.80603311     0.12900
H2213       H  0.50027287  0.12322863  0.80927689     0.12900
C2214       C  0.95355710  0.16975190  0.82786835     0.62400
F2215       F  0.87919842  0.04838859  0.76537164    -0.22700
F2216       F  0.89189633  0.00470323  0.79015958    -0.20100
F2217       F  0.93682948  0.01796047  0.76506148    -0.19700
F2218       F  0.98203246  0.16353892  0.84287626    -0.19800
F2219       F  0.92214503  0.18860922  0.83731543    -0.20100
F2220       F  0.47338131  0.19343904  0.81492077    -0.22800
C2221       C  0.65116016  0.42052475  0.84211021    -0.05600
C2222       C  0.68227733  0.39752345  0.83453086     0.00300
C2223       C  0.67904240  0.38055249  0.81407622    -0.08300
C2224       C  0.64726827  0.39104775  0.80117942    -0.05700
C2225       C  0.61711628  0.41536108  0.80850441     0.00300
C2226       C  0.61825879  0.42895302  0.82970433    -0.08200
C2227       C  0.58532376  0.45343815  0.83906140     0.62200
H2228       H  0.65336325  0.43276914  0.85784824     0.12900
H2229       H  0.64718618  0.38146446  0.78489406     0.12900
C2230       C  0.70758795  0.35124173  0.80492879     0.62400
F2231       F  0.59310220  0.95420084  0.86330415    -0.22700
F2232       F  0.54941090  0.43493462  0.83606324    -0.20100
F2233       F  0.58819424  0.98703835  0.83327212    -0.19700
F2234       F  0.73645384  0.34058580  0.81883277    -0.19800
F2235       F  0.72568713  0.36619280  0.78706180    -0.20100
F2236       F  0.68666202  0.31831750  0.79931592    -0.22800
C2237       C  0.90583844  0.40015043  0.81354532    -0.05600
C2238       C  0.89149650  0.42501677  0.82938643     0.00300
C2239       C  0.91100550  0.46086016  0.83270213    -0.08300
C2240       C  0.94465296  0.47047117  0.82026821    -0.05700
C2241       C  0.95914442  0.44569913  0.80440450     0.00300
C2242       C  0.93955673  0.40958000  0.80109341    -0.08200
C2243       C  0.95562567  0.37980922  0.78555489     0.62200
H2244       H  0.89121918  0.37245089  0.81163489     0.12900
H2245       H  0.95976404  0.49779431  0.82267782     0.12900
C2246       C  0.89608667  0.48894831  0.84933623     0.62400
F2247       F  0.93519244  0.34510285  0.78684264    -0.22700
F2248       F  0.99484938  0.37282307  0.78985560    -0.20100
F2249       F  0.95249254  0.39288033  0.76512898    -0.19700
F2250       F  0.89751976  0.47267566  0.86911975    -0.19800
F2251       F  0.85757316  0.49885887  0.84507704    -0.20100
F2252       F  0.91874870  0.52216218  0.84966323    -0.22800
C2253       C  0.63127626  0.17806017  0.07842758    -0.05600
C2254       C  0.61793472  0.15717986  0.06063333     0.00300
C2255       C  0.63322114  0.11965478  0.05687994    -0.08300
C2256       C  0.66423085  0.10656510  0.06970840    -0.05700
C2257       C  0.67877886  0.12899947  0.08654501     0.00300
C2258       C  0.66100449  0.16471413  0.09149382    -0.08200
C2259       C  0.67147069  0.18822701  0.11115498     0.62200
H2260       H  0.61869455  0.20587860  0.08209511     0.12900
H2261       H  0.67732651  0.07866674  0.06677518     0.12900
C2262       C  0.61577796  0.09273713  0.04037782     0.62400
F2263       F  0.65921257  0.22601656  0.10964453    -0.22700
F2264       F  0.71174052  0.18914558  0.11443271    -0.20100
F2265       F  0.65288514  0.17205123  0.12852762    -0.19700
F2266       F  0.62457166  0.10587591  0.02041398    -0.19800
F2267       F  0.57519701  0.09059230  0.04311269    -0.20100
F2268       F  0.63052980  0.05583002  0.04188198    -0.22800
C2269       C  0.88044336  0.18911810  0.07336699    -0.05600
C2270       C  0.88683579  0.15486471  0.08415918     0.00300
C2271       C  0.92272934  0.13482046  0.07961683    -0.08300
C2272       C  0.95092123  0.15104830  0.06524250    -0.05700
C2273       C  0.94295712  0.18409169  0.05336282     0.00300
C2274       C  0.90527432  0.20160749  0.05675186    -0.08200
C2275       C  0.88753938  0.23124954  0.04249094     0.62200
H2276       H  0.85370928  0.20501652  0.07693035     0.12900
H2277       H  0.97929776  0.13728928  0.06303792     0.12900
C2278       C  0.93326548  0.09664459  0.08943916     0.62400
F2279       F  0.84804565  0.22257038  0.03912032    -0.22700
F2280       F  0.90552703  0.23135835  0.02305735    -0.20100
F2281       F  0.89007078  0.26735363  0.05169503    -0.19700
F2282       F  0.90249688  0.08016613  0.10082255    -0.19800
F2283       F  0.96503654  0.10214900  0.10268003    -0.20100
F2284       F  0.94389858  0.07080201  0.07365798    -0.22800
C2285       C  0.68582195  0.27369134  0.06319114    -0.05600
C2286       C  0.65719808  0.29543420  0.05284526     0.00300
C2287       C  0.65649433  0.33607275  0.05633505    -0.08300
C2288       C  0.68209525  0.35269196  0.07134131    -0.05700
C2289       C  0.70925444  0.33058055  0.08228131     0.00300
C2290       C  0.71237230  0.29071618  0.07761197    -0.08200
C2291       C  0.74340330  0.26626990  0.08801921     0.62200
H2292       H  0.68669985  0.24292275  0.06026828     0.12900
H2293       H  0.68126025  0.38335504  0.07465238     0.12900
C2294       C  0.62974644  0.36233067  0.04404422     0.62400
F2295       F  0.74094239  0.22812178  0.08158163    -0.22700
F2296       F  0.73849986  0.26796668  0.10971045    -0.20100
F2297       F  0.78081121  0.27963250  0.08275071    -0.19700
F2298       F  0.59126167  0.35874353  0.05140198    -0.19800
F2299       F  0.63148534  0.35289755  0.02278716    -0.20100
F2300       F  0.64105438  0.40064125  0.04611532    -0.22800
C2301       C  0.92299744  0.32438218  0.08430361    -0.05600
C2302       C  0.90725236  0.36074418  0.08075929     0.00300
C2303       C  0.91933772  0.38138351  0.06241653    -0.08300
C2304       C  0.94262706  0.36201100  0.04713774    -0.05700
C2305       C  0.95950300  0.32638225  0.05169045     0.00300
C2306       C  0.95443737  0.31118794  0.07220215    -0.08200
C2307       C  0.48133033  0.26585776  0.08386687     0.62200
H2308       H  0.91418982  0.30837528  0.09824552     0.12900
H2309       H  0.94873113  0.37525715  0.03200402     0.12900
C2310       C  0.90860155  0.42286763  0.05817006     0.62400
F2311       F  0.48720798  0.27693142  0.10463514    -0.22700
F2312       F  0.51810042  0.26706083  0.07424924    -0.20100
F2313       F  0.96817659  0.24968100  0.08635052    -0.19700
F2314       F  0.88855045  0.43996085  0.07487425    -0.19800
F2315       F  0.88542884  0.42447075  0.04039733    -0.20100
F2316       F  0.94285191  0.44403541  0.05452822    -0.22800
C2317       C  0.71425980  0.32000787  0.95237838    -0.05600
C2318       C  0.70077370  0.35223346  0.94156899     0.00300
C2319       C  0.66294010  0.36698273  0.94710567    -0.08300
C2320       C  0.63858537  0.34635387  0.96150071    -0.05700
C2321       C  0.65140805  0.31285804  0.97168143     0.00300
C2322       C  0.69121211  0.30076980  0.96775580    -0.08200
C2323       C  0.71015345  0.26739488  0.97917409     0.62200
H2324       H  0.74316472  0.30909604  0.94810949     0.12900
H2325       H  0.60889071  0.35652866  0.96460226     0.12900
C2326       C  0.64672010  0.40412029  0.93844247     0.62400
F2327       F  0.69462512  0.23270433  0.97200994    -0.22700
F2328       F  0.70385920  0.27116396  0.00071344    -0.20100
F2329       F  0.75065176  0.26642145  0.97577514    -0.19700
F2330       F  0.61529346  0.39570186  0.92539088    -0.19800
F2331       F  0.67463263  0.42525417  0.92727033    -0.20100
F2332       F  0.63339003  0.42701411  0.95500092    -0.22800
C2333       C  0.92575698  0.30666210  0.95476621    -0.05600
C2334       C  0.96253375  0.32540849  0.95623411     0.00300
C2335       C  0.96816698  0.36106477  0.94591396    -0.08300
C2336       C  0.93629559  0.37679094  0.93465995    -0.05700
C2337       C  0.90015349  0.35662962  0.93225065     0.00300
C2338       C  0.89526407  0.32035398  0.94211081    -0.08200
C2339       C  0.85923157  0.29463300  0.93839635     0.62200
H2340       H  0.92144475  0.27990505  0.96297227     0.12900
H2341       H  0.93990897  0.40420693  0.92682541     0.12900
C2342       C  0.50984183  0.37862941  0.94592054     0.62400
F2343       F  0.86542550  0.25762032  0.94530244    -0.22700
F2344       F  0.85092500  0.29244418  0.91710480    -0.20100
F2345       F  0.82681571  0.30867576  0.94926235    -0.19700
F2346       F  0.53554819  0.35496662  0.93486711    -0.19800
F2347       F  0.52427554  0.38529633  0.96596848    -0.20100
F2348       F  0.50841830  0.41356180  0.93562981    -0.22800
C2349       C  0.63224628  0.20871323  0.93139945    -0.05600
C2350       C  0.62273518  0.18383592  0.94824358     0.00300
C2351       C  0.64413720  0.14882146  0.94984255    -0.08300
C2352       C  0.67419180  0.14071521  0.93477770    -0.05700
C2353       C  0.68473751  0.16697259  0.91895869     0.00300
C2354       C  0.66373790  0.20170260  0.91730264    -0.08200
C2355       C  0.67605015  0.23243943  0.90152412     0.62200
H2356       H  0.61627854  0.23535025  0.92997241     0.12900
H2357       H  0.69109550  0.11450486  0.93576346     0.12900
C2358       C  0.63764641  0.12122176  0.96795395     0.62400
F2359       F  0.65280356  0.26481288  0.90334346    -0.22700
F2360       F  0.67267959  0.21845912  0.88114412    -0.20100
F2361       F  0.71478871  0.24361743  0.90499921    -0.19700
F2362       F  0.65876519  0.08755955  0.96521296    -0.19800
F2363       F  0.59806689  0.11121533  0.96973658    -0.20100
F2364       F  0.65027232  0.13882963  0.98635459    -0.22800
C2365       C  0.94479069  0.21486305  0.93675760    -0.05600
C2366       C  0.94255394  0.19761546  0.95662646     0.00300
C2367       C  0.91748638  0.16530220  0.95982309    -0.08300
C2368       C  0.89309368  0.15294038  0.94322565    -0.05700
C2369       C  0.89300443  0.17213144  0.92383858     0.00300
C2370       C  0.91991946  0.20317765  0.92025892    -0.08200
C2371       C  0.92178291  0.22490060  0.89951819     0.62200
H2372       H  0.96500461  0.23895909  0.93458674     0.12900
H2373       H  0.87286068  0.12887791  0.94543759     0.12900
C2374       C  0.91735845  0.14346187  0.98041838     0.62400
F2375       F  0.94391406  0.25859091  0.90121845    -0.22700
F2376       F  0.88428987  0.23474692  0.89326720    -0.20100
F2377       F  0.93914135  0.20217514  0.88406272    -0.19700
F2378       F  0.90282404  0.16641966  0.99659305    -0.19800
F2379       F  0.95548855  0.13267544  0.98501180    -0.20100
F2380       F  0.89409326  0.11045139  0.97935411    -0.22800
C2381       C  0.93132935  0.40129377  0.22515875    -0.05600
C2382       C  0.96866361  0.41479452  0.21821510     0.00300
C2383       C  0.97577605  0.41645137  0.19626706    -0.08300
C2384       C  0.94330167  0.41618518  0.18276485    -0.05700
C2385       C  0.90557825  0.40258596  0.18917307     0.00300
C2386       C  0.90082158  0.39184314  0.21079661    -0.08200
C2387       C  0.86532253  0.37012974  0.21973643     0.62200
H2388       H  0.92578022  0.39815578  0.24194103     0.12900
H2389       H  0.94833079  0.42509216  0.16662080     0.12900
C2390       C  0.51992406  0.39933286  0.19220131     0.62400
F2391       F  0.87829409  0.33950243  0.23151728    -0.22700
F2392       F  0.84092058  0.35502564  0.20438648    -0.20100
F2393       F  0.84376959  0.39442135  0.23280349    -0.19700
F2394       F  0.54731588  0.39713163  0.20812354    -0.19800
F2395       F  0.52827250  0.43107599  0.17992317    -0.20100
F2396       F  0.52380570  0.36656736  0.17976820    -0.22800
C2397       C  0.65516837  0.41327605  0.21268757    -0.05600
C2398       C  0.63343141  0.44598984  0.20691932     0.00300
C2399       C  0.64298318  0.46406471  0.18741153    -0.08300
C2400       C  0.67543987  0.45046286  0.17541894    -0.05700
C2401       C  0.69803596  0.41931626  0.18197129     0.00300
C2402       C  0.68712929  0.39951611  0.20052010    -0.08200
C2403       C  0.70893211  0.36373882  0.20728268     0.62200
H2404       H  0.64752514  0.39862210  0.22718603     0.12900
H2405       H  0.68387847  0.46428215  0.16076323     0.12900
C2406       C  0.62033476  0.49812173  0.17932356     0.62400
F2407       F  0.74776776  0.37304333  0.21168960    -0.22700
F2408       F  0.70805295  0.33635517  0.19128663    -0.20100
F2409       F  0.69209248  0.34746596  0.22516421    -0.19700
F2410       F  0.63223356  0.50810996  0.15911064    -0.19800
F2411       F  0.64786447  0.01396040  0.20181299    -0.20100
F2412       F  0.58041179  0.48955392  0.17870170    -0.22800
C2413       C  0.91370442  0.08192397  0.22110792    -0.05600
C2414       C  0.93849423  0.05433410  0.21183341     0.00300
C2415       C  0.93718201  0.04847171  0.18954297    -0.08300
C2416       C  0.90878761  0.06809945  0.17789153    -0.05700
C2417       C  0.88304406  0.09465381  0.18736743     0.00300
C2418       C  0.88686528  0.10310992  0.20919882    -0.08200
C2419       C  0.86324941  0.13355158  0.22084466     0.62200
H2420       H  0.91568805  0.08740118  0.23795106     0.12900
H2421       H  0.90564352  0.06215752  0.16117810     0.12900
C2422       C  0.43933435  0.98855462  0.18062001     0.62400
F2423       F  0.83648203  0.11559855  0.23426113    -0.22700
F2424       F  0.84311104  0.15737359  0.20747378    -0.20100
F2425       F  0.88850759  0.15642454  0.23271673    -0.19700
F2426       F  0.42894227  0.96715915  0.19806817    -0.19800
F2427       F  0.47871131  0.98378097  0.17551058    -0.20100
F2428       F  0.41706948  0.97543970  0.16377058    -0.22800
C2429       C  0.65733232  0.08909198  0.23017652    -0.05600
C2430       C  0.61839963  0.07880838  0.22457618     0.00300
C2431       C  0.60522265  0.09173876  0.20468057    -0.08300
C2432       C  0.63379174  0.10445071  0.18961687    -0.05700
C2433       C  0.67479978  0.10360878  0.19362700     0.00300
C2434       C  0.68425076  0.10524994  0.21545744    -0.08200
C2435       C  0.71790220  0.12953684  0.22426907     0.62200
H2436       H  0.66669603  0.08505101  0.24629439     0.12900
H2437       H  0.62380551  0.11464546  0.17462867     0.12900
C2438       C  0.56228816  0.08973558  0.19848890     0.62400
F2439       F  0.70324183  0.15355133  0.24001742    -0.22700
F2440       F  0.73515979  0.15295160  0.20912699    -0.20100
F2441       F  0.74617473  0.10632351  0.23295879    -0.19700
F2442       F  0.53847386  0.10278701  0.21490939    -0.19800
F2443       F  0.55256298  0.05217880  0.19336271    -0.20100
F2444       F  0.55502832  0.11236704  0.18112542    -0.22800
C2445       C  0.69988526  0.12577358  0.69024375    -0.05600
C2446       C  0.68039900  0.16163313  0.68984474     0.00300
C2447       C  0.64390256  0.16500036  0.70108880    -0.08300
C2448       C  0.62811198  0.13250609  0.71156415    -0.05700
C2449       C  0.64565834  0.09607703  0.71039189     0.00300
C2450       C  0.68265279  0.09264417  0.69983260    -0.08200
C2451       C  0.70375037  0.05434159  0.69869516     0.62200
H2452       H  0.72778257  0.12335335  0.68179956     0.12900
H2453       H  0.60034837  0.13492771  0.72008933     0.12900
C2454       C  0.61995501  0.20184297  0.70128201     0.62400
F2455       F  0.74093003  0.05787067  0.68949721    -0.22700
F2456       F  0.68205752  0.02829422  0.68679979    -0.20100
F2457       F  0.70816017  0.04000891  0.71879188    -0.19700
F2458       F  0.61487535  0.21467292  0.68092135    -0.19800
F2459       F  0.63865145  0.23005294  0.71306180    -0.20100
F2460       F  0.58294164  0.19620318  0.71028138    -0.22800
C2461       C  0.64790945  0.34472729  0.70880073    -0.05600
C2462       C  0.67996114  0.35805098  0.69663992     0.00300
C2463       C  0.69564692  0.39532304  0.70122328    -0.08300
C2464       C  0.67443261  0.42013543  0.71506420    -0.05700
C2465       C  0.64039552  0.40760211  0.72619247     0.00300
C2466       C  0.62942276  0.36767161  0.72436229    -0.08200
C2467       C  0.59758601  0.34828673  0.73790869     0.62200
H2468       H  0.63661639  0.31591031  0.70568434     0.12900
H2469       H  0.68452370  0.44969384  0.71699492     0.12900
C2470       C  0.73484437  0.40987315  0.69245877     0.62400
F2471       F  0.56060055  0.35583784  0.73001297    -0.22700
F2472       F  0.59971523  0.36098837  0.75857961    -0.20100
F2473       F  0.60224564  0.30867843  0.73817237    -0.19700
F2474       F  0.72848882  0.44018840  0.67899094    -0.19800
F2475       F  0.75573319  0.38165118  0.68172705    -0.20100
F2476       F  0.75798633  0.42277813  0.70898453    -0.22800
C2477       C  0.53607696  0.10733374  0.68626088    -0.05600
C2478       C  0.51287718  0.10521162  0.70470559     0.00300
C2479       C  0.98084145  0.12526438  0.70111342    -0.08300
C2480       C  0.97294671  0.15041545  0.68445532    -0.05700
C2481       C  0.00014230  0.15576850  0.66782934     0.00300
C2482       C  0.52801562  0.13385827  0.67026374    -0.08200
C2483       C  0.55597025  0.13699743  0.65135994     0.62200
H2484       H  0.56202672  0.08942360  0.68502611     0.12900
H2485       H  0.94630400  0.16742689  0.68471863     0.12900
C2486       C  0.95172764  0.12162459  0.71943171     0.62400
F2487       F  0.58919889  0.11461297  0.65368703    -0.22700
F2488       F  0.56839569  0.17478215  0.64888416    -0.20100
F2489       F  0.53710428  0.12467082  0.63328232    -0.19700
F2490       F  0.96742141  0.13854432  0.73734333    -0.19800
F2491       F  0.94370654  0.08314472  0.72327582    -0.20100
F2492       F  0.91635098  0.13950940  0.71525687    -0.22800
C2493       C  0.99096119  0.39561081  0.70045595    -0.05600
C2494       C  0.51021522  0.42580699  0.69876982     0.00300
C2495       C  0.53222711  0.41791623  0.67980997    -0.08300
C2496       C  0.52171179  0.38557351  0.66752168    -0.05700
C2497       C  0.00387468  0.35842692  0.66830181     0.00300
C2498       C  0.98117097  0.36434549  0.68697304    -0.08200
C2499       C  0.94611395  0.33841100  0.69243193     0.62200
H2500       H  0.97485709  0.39910118  0.71520659     0.12900
H2501       H  0.53870049  0.37830557  0.65345498     0.12900
C2502       C  0.56692207  0.44267781  0.67219818     0.62400
F2503       F  0.92113525  0.33545642  0.67537862    -0.22700
F2504       F  0.92452759  0.35270779  0.70942425    -0.20100
F2505       F  0.95888406  0.30213654  0.69763000    -0.19700
F2506       F  0.59893520  0.43783439  0.68518634    -0.19800
F2507       F  0.55626920  0.48104594  0.67202619    -0.20100
F2508       F  0.57890521  0.43288334  0.65187615    -0.22800
C2509       C  0.89527308  0.13749202  0.53815129    -0.05600
C2510       C  0.91344477  0.10178307  0.53431494     0.00300
C2511       C  0.95136569  0.09515355  0.54283032    -0.08300
C2512       C  0.96838571  0.12374881  0.55594437    -0.05700
C2513       C  0.94827945  0.15777218  0.56120371     0.00300
C2514       C  0.91118893  0.16510639  0.55197511    -0.08200
C2515       C  0.88716688  0.20095780  0.55723269     0.62200
H2516       H  0.86664922  0.14277377  0.53140913     0.12900
H2517       H  0.99667744  0.11884394  0.56318528     0.12900
C2518       C  0.97324862  0.05770640  0.53905029     0.62400
F2519       F  0.84825917  0.19693429  0.55099982    -0.22700
F2520       F  0.90318290  0.23237557  0.54688719    -0.20100
F2521       F  0.88671814  0.20815386  0.57872964    -0.19700
F2522       F  0.97121196  0.04685140  0.51803158    -0.19800
F2523       F  0.95678417  0.02899711  0.55144710    -0.20100
F2524       F  0.01278532  0.06140478  0.54409485    -0.22800
C2525       C  0.90872034  0.33372175  0.55823151    -0.05600
C2526       C  0.94764613  0.34476651  0.56272906     0.00300
C2527       C  0.96344558  0.37943438  0.55474390    -0.08300
C2528       C  0.93773127  0.40460297  0.54486926    -0.05700
C2529       C  0.89715691  0.39585954  0.54265811     0.00300
C2530       C  0.88306799  0.35841184  0.54789105    -0.08200
C2531       C  0.84120519  0.34464139  0.54355197     0.62200
H2532       H  0.89791998  0.30630171  0.56411133     0.12900
H2533       H  0.94945533  0.43208520  0.53954935     0.12900
C2534       C  0.00651588  0.39153551  0.55659417     0.62400
F2535       F  0.83544228  0.30644713  0.54900723    -0.22700
F2536       F  0.83346558  0.34757122  0.52225139    -0.20100
F2537       F  0.81475172  0.36665035  0.55513817    -0.19700
F2538       F  0.02237871  0.39655194  0.53657258    -0.19800
F2539       F  0.02925399  0.36480092  0.56677564    -0.20100
F2540       F  0.00900896  0.42609301  0.56757881    -0.22800
C2541       C  0.79732675  0.12349629  0.57374105    -0.05600
C2542       C  0.77431266  0.11700924  0.55570262     0.00300
C2543       C  0.73936000  0.13902121  0.55316949    -0.08300
C2544       C  0.72925580  0.16679199  0.56858262    -0.05700
C2545       C  0.75238843  0.17328557  0.58636968     0.00300
C2546       C  0.78698690  0.15139614  0.58914453    -0.08200
C2547       C  0.81305059  0.15793918  0.60817706     0.62200
H2548       H  0.82399989  0.10696641  0.57552294     0.12900
H2549       H  0.70291857  0.18389420  0.56694466     0.12900
C2550       C  0.71196904  0.13310499  0.53463618     0.62400
F2551       F  0.84735859  0.13665549  0.60680363    -0.22700
F2552       F  0.79287364  0.14727292  0.62633636    -0.20100
F2553       F  0.82358562  0.19646452  0.60970025    -0.19700
F2554       F  0.70297634  0.09433876  0.53232295    -0.19800
F2555       F  0.72985132  0.14686914  0.51642513    -0.20100
F2556       F  0.67674628  0.15250917  0.53750152    -0.22800
C2557       C  0.72938566  0.40697687  0.55322171    -0.05600
C2558       C  0.75108982  0.43873235  0.56115270     0.00300
C2559       C  0.75715875  0.44049005  0.58338083    -0.08300
C2560       C  0.74653902  0.40862586  0.59603523    -0.05700
C2561       C  0.72647772  0.37595267  0.58809761     0.00300
C2562       C  0.71572226  0.37638324  0.56632157    -0.08200
C2563       C  0.69003897  0.34579078  0.55585655     0.62200
H2564       H  0.72397097  0.40527869  0.53641359     0.12900
H2565       H  0.75486050  0.40891217  0.61248641     0.12900
C2566       C  0.77637988  0.47506857  0.59414853     0.62400
F2567       F  0.65929310  0.36343257  0.54566953    -0.22700
F2568       F  0.67358800  0.31997090  0.56997992    -0.20100
F2569       F  0.71232406  0.32575139  0.54103401    -0.19700
F2570       F  0.76575124  0.50890358  0.58445643    -0.19800
F2571       F  0.81703081  0.47144065  0.59345658    -0.20100
F2572       F  0.76443115  0.47777747  0.61509348    -0.22800
C2573       C  0.59317749  0.10694382  0.34977942    -0.05600
C2574       C  0.62959591  0.12576062  0.34681783     0.00300
C2575       C  0.65832380  0.10864658  0.33328850    -0.08300
C2576       C  0.64706957  0.07628998  0.32096520    -0.05700
C2577       C  0.61061306  0.05710048  0.32427275     0.00300
C2578       C  0.58566463  0.07037164  0.34102233    -0.08200
C2579       C  0.55338553  0.04590588  0.35117646     0.62200
H2580       H  0.57227420  0.11935827  0.36096218     0.12900
H2581       H  0.66727422  0.06497735  0.30910861     0.12900
C2582       C  0.70083834  0.12310369  0.33257853     0.62400
F2583       F  0.54133979  0.06096790  0.37051227    -0.22700
F2584       F  0.56708027  0.00919732  0.35483784    -0.20100
F2585       F  0.52094667  0.04431915  0.33846720    -0.19700
F2586       F  0.72443757  0.09988988  0.31988582    -0.19800
F2587       F  0.71616822  0.12308334  0.35270531    -0.20100
F2588       F  0.70286166  0.16002769  0.32475292    -0.22800
C2589       C  0.65652657  0.34975662  0.33102108    -0.05600
C2590       C  0.62570836  0.33023341  0.34165972     0.00300
C2591       C  0.58642293  0.34287032  0.33902076    -0.08300
C2592       C  0.57928524  0.37483497  0.32596528    -0.05700
C2593       C  0.61001305  0.39427890  0.31523137     0.00300
C2594       C  0.64943979  0.38165279  0.31787143    -0.08200
C2595       C  0.68407558  0.40302245  0.30777250     0.62200
H2596       H  0.68645018  0.34032465  0.33359497     0.12900
H2597       H  0.54937219  0.38474858  0.32384195     0.12900
C2598       C  0.55213868  0.32237328  0.34986749     0.62400
F2599       F  0.71995748  0.38757005  0.31337396    -0.22700
F2600       F  0.68376742  0.44121490  0.31422461    -0.20100
F2601       F  0.68146113  0.40106597  0.28604294    -0.19700
F2602       F  0.55812319  0.32082435  0.37137389    -0.19800
F2603       F  0.54873809  0.28530216  0.34185788    -0.20100
F2604       F  0.51695979  0.34111363  0.34671465    -0.22800
C2605       C  0.70444407  0.09123753  0.47668332    -0.05600
C2606       C  0.72782579  0.06480788  0.46516563     0.00300
C2607       C  0.73256510  0.07064576  0.44310759    -0.08300
C2608       C  0.72239555  0.10606424  0.43457009    -0.05700
C2609       C  0.69961526  0.13276946  0.44592119     0.00300
C2610       C  0.68838294  0.12422960  0.46703497    -0.08200
C2611       C  0.65922294  0.14930082  0.47905159     0.62200
H2612       H  0.69922925  0.08620442  0.49326758     0.12900
H2613       H  0.72917689  0.11157920  0.41808866     0.12900
C2614       C  0.74541537  0.03908583  0.42792058     0.62400
F2615       F  0.64821249  0.13311231  0.49812870    -0.22700
F2616       F  0.62539109  0.15361029  0.46734157    -0.20100
F2617       F  0.67584258  0.18515512  0.48298177    -0.19700
F2618       F  0.72758287  0.04328639  0.40853187    -0.19800
F2619       F  0.78594582  0.04050913  0.42492998    -0.20100
F2620       F  0.73390303  0.00350937  0.43559904    -0.22800
C2621       C  0.72636115  0.36887586  0.47265380    -0.05600
C2622       C  0.75783370  0.39011822  0.46355570     0.00300
C2623       C  0.76733981  0.38394798  0.44177492    -0.08300
C2624       C  0.74534297  0.35625025  0.43039605    -0.05700
C2625       C  0.71440918  0.33504765  0.43972348     0.00300
C2626       C  0.70405733  0.34194040  0.46111590    -0.08200
C2627       C  0.67053077  0.32137199  0.47274729     0.62200
H2628       H  0.71870488  0.37342171  0.48915635     0.12900
H2629       H  0.75254989  0.35015288  0.41400538     0.12900
C2630       C  0.80098687  0.40482440  0.43036332     0.62400
F2631       F  0.64760993  0.34815384  0.48344445    -0.22700
F2632       F  0.68629926  0.29650773  0.48724370    -0.20100
F2633       F  0.64583653  0.30063230  0.45955124    -0.19700
F2634       F  0.83582809  0.39994098  0.44084647    -0.19800
F2635       F  0.79330994  0.44358055  0.42919347    -0.20100
F2636       F  0.80643437  0.39119794  0.40993027    -0.22800
C2637       C  0.99293019  0.16320652  0.31089487    -0.05600
C2638       C  0.95276593  0.16555069  0.31640257     0.00300
C2639       C  0.92567751  0.13982526  0.30652017    -0.08300
C2640       C  0.94066390  0.10773441  0.29525287    -0.05700
C2641       C  0.98137117  0.10327168  0.29163497     0.00300
C2642       C  0.00734429  0.13378987  0.29755590    -0.08200
C2643       C  0.04956880  0.13801348  0.28967353     0.62200
H2644       H  0.01342559  0.18436886  0.31731070     0.12900
H2645       H  0.92071911  0.08534288  0.28966833     0.12900
C2646       C  0.88149432  0.14684876  0.30735194     0.62400
F2647       F  0.05248638  0.17063479  0.27736938    -0.22700
F2648       F  0.06192004  0.10710036  0.27759201    -0.20100
F2649       F  0.07462146  0.14259338  0.30652672    -0.19700
F2650       F  0.86112299  0.12067420  0.29480690    -0.19800
F2651       F  0.87418888  0.18342307  0.30000132    -0.20100
F2652       F  0.86681594  0.14392934  0.32769790    -0.22800
C2653       C  0.94425520  0.39844964  0.34090428    -0.05600
C2654       C  0.92418528  0.36736541  0.33132718     0.00300
C2655       C  0.90966425  0.37240315  0.31047494    -0.08300
C2656       C  0.92105128  0.40596406  0.29924210    -0.05700
C2657       C  0.94201420  0.43619463  0.30907817     0.00300
C2658       C  0.94947448  0.43376585  0.33093549    -0.08200
C2659       C  0.96826189  0.46656477  0.34339284     0.62200
H2660       H  0.95610862  0.39529631  0.35659127     0.12900
H2661       H  0.91505543  0.40773769  0.28252246     0.12900
C2662       C  0.88299758  0.34360902  0.29926056     0.62400
F2663       F  0.95359913  0.46693010  0.36388998    -0.22700
F2664       F  0.95993188  0.50178404  0.33453396    -0.20100
F2665       F  0.50077899  0.46013250  0.35385144    -0.19700
F2666       F  0.86771413  0.31579653  0.31261059    -0.19800
F2667       F  0.90382003  0.32584472  0.28302419    -0.20100
F2668       F  0.85143000  0.36279172  0.29075664    -0.22800
C2669       C  0.84721425  0.12305748  0.44368031    -0.05600
C2670       C  0.87219848  0.09982767  0.45548159     0.00300
C2671       C  0.91380463  0.10201734  0.45184885    -0.08300
C2672       C  0.92866999  0.12692084  0.43620413    -0.05700
C2673       C  0.90363898  0.15011562  0.42459501     0.00300
C2674       C  0.86225861  0.14848122  0.42833313    -0.08200
C2675       C  0.83422316  0.17451993  0.41669831     0.62200
H2676       H  0.81563826  0.12106687  0.44656031     0.12900
H2677       H  0.96016009  0.12909754  0.43310287     0.12900
C2678       C  0.94278057  0.07967114  0.46494570     0.62400
F2679       F  0.79505634  0.16556043  0.42111874    -0.22700
F2680       F  0.83987834  0.17090776  0.39513394    -0.20100
F2681       F  0.84107886  0.21237598  0.42268744    -0.19700
F2682       F  0.94052802  0.04088892  0.45992696    -0.19800
F2683       F  0.93414731  0.08509808  0.48610175    -0.20100
F2684       F  0.98141303  0.09182932  0.46149412    -0.22800
C2685       C  0.94511978  0.37024157  0.44272650    -0.05600
C2686       C  0.91869841  0.33948142  0.43887462     0.00300
C2687       C  0.88621605  0.33346974  0.45286256    -0.08300
C2688       C  0.88056702  0.35964106  0.46966464    -0.05700
C2689       C  0.90359273  0.39356438  0.47166397     0.00300
C2690       C  0.93852583  0.39699083  0.45928596    -0.08200
C2691       C  0.96974279  0.42763347  0.46331436     0.62200
H2692       H  0.97078321  0.37374884  0.43247825     0.12900
H2693       H  0.85481143  0.35602833  0.47977211     0.12900
C2694       C  0.85540490  0.30181444  0.44914819     0.62400
F2695       F  0.00645098  0.41056149  0.46402543    -0.22700
F2696       F  0.96374215  0.44666945  0.48235852    -0.20100
F2697       F  0.96982829  0.45403630  0.44713645    -0.19700
F2698       F  0.87071075  0.26641012  0.45411346    -0.19800
F2699       F  0.84378029  0.30136291  0.42830016    -0.20100
F2700       F  0.82185456  0.30721183  0.46150447    -0.22800
N2701       N  0.91965216  0.74536004  0.40600043    -0.36500
N2702       N  0.91161236  0.80888291  0.37846326    -0.57000
N2703       N  0.92192489  0.75825970  0.34191878    -0.36500
N2704       N  0.93070583  0.69367569  0.37070465    -0.57000
C2705       C  0.92586156  0.77476373  0.41969575     0.27100
C2706       C  0.93031246  0.71285048  0.41565688     0.27100
C2707       C  0.92728667  0.79365451  0.33327615     0.27100
C2708       C  0.93969476  0.73197958  0.32902598     0.27100
C2709       C  0.90076753  0.82576569  0.39692807     0.35700
C2710       C  0.89885140  0.83176540  0.36295882     0.35700
C2711       C  0.92282455  0.66742307  0.38593881     0.35700
C2712       C  0.93138448  0.67428774  0.35209072     0.35700
C2713       C  0.94217815  0.76090919  0.43805162    -0.21700
C2714       C  0.94412751  0.72146251  0.43566633    -0.21700
C2715       C  0.94843020  0.78976616  0.31450593    -0.21700
C2716       C  0.95569612  0.75093406  0.31165992    -0.21700
C2717       C  0.88087726  0.85955704  0.39320237    -0.22800
C2718       C  0.87921402  0.86318077  0.37166352    -0.22800
C2719       C  0.91915836  0.63103171  0.37711659    -0.22800
C2720       C  0.92552407  0.63517345  0.35575876    -0.22800
C2721       C  0.91150774  0.81227134  0.41698100    -0.18100
C2722       C  0.92164642  0.67581894  0.40782259    -0.18100
C2723       C  0.93992518  0.69127672  0.33215310    -0.18100
C2724       C  0.91234309  0.82893199  0.34176740    -0.18100
H2725       H  0.94914602  0.77715657  0.45221575     0.14800
H2726       H  0.95337248  0.70138907  0.44752951     0.14800
H2727       H  0.95760696  0.81244767  0.30387474     0.14800
H2728       H  0.97115387  0.73830502  0.29828960     0.14800
H2729       H  0.87001811  0.88005551  0.40477324     0.13000
H2730       H  0.86715623  0.88737617  0.36335035     0.13000
H2731       H  0.91400624  0.60419018  0.38530560     0.13000
H2732       H  0.92606864  0.61173150  0.34442713     0.13000
H2733       H  0.90244998  0.74611268  0.39252197     0.26300
H2734       H  0.90412670  0.75202261  0.35498745     0.26300
N2735       N  0.66229108  0.72639700  0.35987494    -0.36500
N2736       N  0.67950832  0.66858213  0.39204529    -0.57000
N2737       N  0.68965918  0.72750018  0.42336051    -0.36500
N2738       N  0.67423842  0.78591010  0.39052583    -0.57000
C2739       C  0.66409722  0.69471585  0.34738796     0.27100
C2740       C  0.65707978  0.75726397  0.34733660     0.27100
C2741       C  0.70512850  0.69671589  0.43321490     0.27100
C2742       C  0.70690065  0.75946595  0.43153748     0.27100
C2743       C  0.66806870  0.64533441  0.37601925     0.35700
C2744       C  0.67721159  0.64712017  0.40974347     0.35700
C2745       C  0.65822002  0.80790075  0.37542268     0.35700
C2746       C  0.67724657  0.80829231  0.40793623     0.35700
C2747       C  0.65918480  0.70551636  0.32653997    -0.21700
C2748       C  0.65502782  0.74496654  0.32650560    -0.21700
C2749       C  0.73200818  0.70920609  0.44812802    -0.21700
C2750       C  0.73336709  0.74886331  0.44696212    -0.21700
C2751       C  0.65913255  0.60877517  0.38369237    -0.22800
C2752       C  0.66354161  0.61037849  0.40503484    -0.22800
C2753       C  0.65126948  0.84464026  0.38327537    -0.22800
C2754       C  0.66333462  0.84489695  0.40387371    -0.22800
C2755       C  0.66563000  0.65614301  0.35450855    -0.18100
C2756       C  0.65133284  0.79573671  0.35438642    -0.18100
C2757       C  0.69739502  0.79787326  0.42637281    -0.18100
C2758       C  0.69460554  0.65784650  0.42908128    -0.18100
H2759       H  0.65736769  0.68681942  0.31280578     0.14800
H2760       H  0.64990910  0.76242338  0.31277459     0.14800
H2761       H  0.74895276  0.69162819  0.45864356     0.14800
H2762       H  0.75117246  0.76779079  0.45669298     0.14800
H2763       H  0.65051278  0.58314402  0.37501028     0.13000
H2764       H  0.65952134  0.58644677  0.41570145     0.13000
H2765       H  0.63926592  0.86886225  0.37496686     0.13000
H2766       H  0.66281581  0.86947595  0.41452385     0.13000
H2767       H  0.65998475  0.72613560  0.37617219     0.26300
H2768       H  0.66595534  0.72699315  0.41303233     0.26300
O2769       O  0.84611351  0.92112816  0.49128878    -0.80000
O2770       O  0.86573746  0.57889179  0.51813565    -0.80000
O2771       O  0.87725151  0.53782943  0.47356315    -0.80000
O2772       O  0.87652018  0.96211906  0.53424192    -0.80000
O2773       O  0.83238787  0.57986850  0.48303119    -0.80100
O2774       O  0.82809926  0.92089809  0.52915557    -0.80000
O2775       O  0.90065305  0.53670108  0.53363032    -0.80000
O2776       O  0.87913602  0.96276194  0.47346438    -0.80000
C2777       C  0.87409840  0.92860432  0.47869968     1.09700
C2778       C  0.89651314  0.57052636  0.52786553     1.09600
C2779       C  0.86309757  0.57118344  0.47216096     1.09700
C2780       C  0.86295427  0.92811513  0.53540226     1.09600
O2781       O  0.75809713  0.96692168  0.52518620    -0.80000
O2782       O  0.76396625  0.53555090  0.49774281    -0.80100
O2783       O  0.79218858  0.94579047  0.46934877    -0.80000
O2784       O  0.81797716  0.55779577  0.54747521    -0.80000
O2785       O  0.79190054  0.59481386  0.52230380    -0.80000
O2786       O  0.77103812  0.90923131  0.49642874    -0.80000
O2787       O  0.79969243  0.97751937  0.55055326    -0.80000
O2788       O  0.79446119  0.52431952  0.46783448    -0.80000
Co2789     Co  0.80212619  0.95032989  0.50609660     1.51500
Co2790     Co  0.81549798  0.55198016  0.50970552     1.51700
Co2791     Co  0.84125202  0.49271308  0.47468857     1.51600
Co2792     Co  0.85205602  0.50752578  0.53960389     1.51500
O2793       O  0.83850712  0.50037193  0.50753679    -1.41900
C2794       C  0.76660060  0.96452477  0.54460021     1.09600
C2795       C  0.76447324  0.53687771  0.47776465     1.09700
C2796       C  0.77161690  0.91668867  0.47670223     1.09700
C2797       C  0.79740409  0.58782955  0.54176129     1.09600
N2798       N  0.96783216  0.75537087  0.58823217    -0.36500
N2799       N  0.97644272  0.81596752  0.61941874    -0.57000
N2800       N  0.98421517  0.75734759  0.65133838    -0.36500
N2801       N  0.97830144  0.69675517  0.61873445    -0.57000
C2802       C  0.97048100  0.78701438  0.57617373     0.27100
C2803       C  0.97527628  0.72471584  0.57559051     0.27100
C2804       C  0.99669683  0.78906360  0.66219629     0.27100
C2805       C  0.99499232  0.72592301  0.66223014     0.27100
C2806       C  0.95824186  0.83549965  0.60408613     0.35700
C2807       C  0.97294944  0.83760537  0.63713151     0.35700
C2808       C  0.96583433  0.67453379  0.60242627     0.35700
C2809       C  0.97379077  0.67544350  0.63627837     0.35700
C2810       C  0.98080078  0.77671154  0.55566681    -0.21700
C2811       C  0.98429862  0.73715311  0.55533865    -0.21700
C2812       C  0.50938297  0.77490040  0.68312329    -0.21700
C2813       C  0.50780103  0.73515661  0.68221676    -0.21700
C2814       C  0.94320323  0.86972887  0.61211009    -0.22800
C2815       C  0.95330399  0.87142210  0.63300894    -0.22800
C2816       C  0.95369241  0.63868358  0.60961287    -0.22800
C2817       C  0.95907689  0.63914788  0.63109294    -0.22800
C2818       C  0.95736945  0.82354729  0.58273901    -0.18100
C2819       C  0.96643720  0.68636177  0.58114088    -0.18100
C2820       C  0.98699183  0.68691650  0.65643574    -0.18100
C2821       C  0.98877036  0.82784506  0.65677925    -0.18100
H2822       H  0.98344188  0.79553664  0.54219754     0.14800
H2823       H  0.98974269  0.71935884  0.54149964     0.14800
H2824       H  0.52158267  0.79225353  0.69579715     0.14800
H2825       H  0.51801219  0.71603242  0.69421353     0.14800
H2826       H  0.92703620  0.89143938  0.60379617     0.13000
H2827       H  0.94629913  0.89445466  0.64403322     0.13000
H2828       H  0.94248467  0.61464290  0.60038655     0.13000
H2829       H  0.95324574  0.61540654  0.64167132     0.13000
H2830       H  0.95398531  0.75443455  0.60299717     0.26300
H2831       H  0.96585667  0.75699510  0.63830912     0.26300
N2832       N  0.72467843  0.77135668  0.60753949    -0.36500
N2833       N  0.70737510  0.82747763  0.63980430    -0.57000
N2834       N  0.69209173  0.76432621  0.66952600    -0.36500
N2835       N  0.71242403  0.70891627  0.63821151    -0.57000
C2836       C  0.73568280  0.80472848  0.59794833     0.27100
C2837       C  0.74521942  0.74214506  0.59832730     0.27100
C2838       C  0.70042201  0.79471193  0.68232716     0.27100
C2839       C  0.69627563  0.73174285  0.68088857     0.27100
C2840       C  0.70123883  0.84897174  0.62244587     0.35700
C2841       C  0.68944444  0.84570423  0.65623869     0.35700
C2842       C  0.71711962  0.68898355  0.61998983     0.35700
C2843       C  0.69238831  0.68552862  0.65166971     0.35700
C2844       C  0.76346195  0.79651291  0.58239788    -0.21700
C2845       C  0.76961157  0.75715771  0.58262395    -0.21700
C2846       C  0.71127661  0.78111470  0.70194511    -0.21700
C2847       C  0.70887149  0.74128613  0.70097484    -0.21700
C2848       C  0.67878625  0.88083283  0.62785665    -0.22800
C2849       C  0.67111160  0.87861325  0.64924814    -0.22800
C2850       C  0.69998236  0.65269695  0.62175695    -0.22800
C2851       C  0.68351764  0.65079094  0.64169256    -0.22800
C2852       C  0.71928067  0.84173899  0.60242708    -0.18100
C2853       C  0.73964233  0.70217221  0.60255842    -0.18100
C2854       C  0.68655382  0.69421201  0.67339463    -0.18100
C2855       C  0.69208313  0.83376574  0.67752523    -0.18100
H2856       H  0.77761275  0.81674008  0.57196093     0.14800
H2857       H  0.78924009  0.74133740  0.57216286     0.14800
H2858       H  0.71859102  0.79820239  0.71576073     0.14800
H2859       H  0.71435338  0.72167080  0.71374991     0.14800
H2860       H  0.66935123  0.90350662  0.61753129     0.13000
H2861       H  0.65433562  0.89906829  0.65860125     0.13000
H2862       H  0.69951134  0.62996105  0.60994371     0.13000
H2863       H  0.66797065  0.62615100  0.64819196     0.13000
H2864       H  0.70129131  0.76823005  0.61824809     0.26300
H2865       H  0.67880511  0.76585257  0.65480494     0.26300
O2866       O  0.48947328  0.94309606  0.28727434    -0.80000
O2867       O  0.58723120  0.97330515  0.22115626    -0.80000
O2868       O  0.98896825  0.94458989  0.25113097    -0.80000
O2869       O  0.61874256  0.94362335  0.29122857    -0.80000
O2870       O  0.52372113  0.93518092  0.23198197    -0.80100
O2871       O  0.55930591  0.92243544  0.29969216    -0.80000
O2872       O  0.61670049  0.94397133  0.24735828    -0.80000
O2873       O  0.95933187  0.98333893  0.28318159    -0.80000
C2874       C  0.96923425  0.95958215  0.29739665     1.09700
C2875       C  0.61335444  0.95017063  0.22774991     1.09600
C2876       C  0.99789409  0.93910499  0.23218012     1.09700
C2877       C  0.59631682  0.91852044  0.29993872     1.09600
O2878       O  0.58129904  0.53922088  0.29576079    -0.80000
O2879       O  0.50546767  0.53084109  0.21961295    -0.80100
O2880       O  0.00590129  0.55385100  0.26570914    -0.80000
O2881       O  0.62472854  0.52380574  0.24958515    -0.80000
O2882       O  0.56835716  0.55432052  0.24632875    -0.80000
O2883       O  0.50346644  0.53921004  0.29961636    -0.80000
O2884       O  0.63325326  0.50459289  0.29189603    -0.80000
O2885       O  0.95810755  0.51743703  0.23906480    -0.80000
Co2886     Co  0.53339659  0.97250890  0.29874686     1.51500
Co2887     Co  0.53872577  0.98975895  0.23764905     1.51700
Co2888     Co  0.99643764  0.99885010  0.25888670     1.51600
Co2889     Co  0.61168276  0.98493199  0.26910655     1.51500
O2890       O  0.55122484  0.97905291  0.26842092    -1.41900
C2891       C  0.61604744  0.53318186  0.30034159     1.09600
C2892       C  0.97214116  0.53523704  0.22271266     1.09700
C2893       C  0.99873244  0.56359508  0.28447577     1.09700
C2894       C  0.60571877  0.55362850  0.24422221     1.09600
O2895       O  0.94106503  0.72204212  0.98880147    -0.80000
O2896       O  0.59215475  0.66924459  0.02850290    -0.80000
O2897       O  0.58100525  0.72892145  0.96356048    -0.80000
O2898       O  0.49812662  0.71886987  0.04966934    -0.80000
O2899       O  0.59020962  0.68004790  0.98408752    -0.80100
O2900       O  0.97785007  0.68684920  0.02114541    -0.80000
O2901       O  0.57820131  0.70918955  0.05459035    -0.80000
O2902       O  0.50407341  0.71398408  0.97287789    -0.80000
C2903       C  0.46600158  0.71054061  0.97412020     1.09700
C2904       C  0.59258082  0.67744110  0.04808200     1.09600
C2905       C  0.59466897  0.69542983  0.96615333     1.09700
C2906       C  0.97224280  0.69426772  0.04062731     1.09600
O2907       O  0.95994600  0.76672430  0.02552915    -0.80000
O2908       O  0.63129214  0.75282144  0.99024578    -0.80100
O2909       O  0.52411527  0.78571178  0.95922425    -0.80000
O2910       O  0.59416575  0.78564640  0.03945661    -0.80000
O2911       O  0.63549296  0.73947881  0.03285573    -0.80000
O2912       O  0.98656692  0.78557892  0.98738981    -0.80000
O2913       O  0.51806867  0.79834415  0.03511499    -0.80000
O2914       O  0.58558059  0.79730613  0.98774271    -0.80000
Co2915     Co  0.98809447  0.73341029  0.00355083     1.51500
Co2916     Co  0.60782336  0.71129010  0.00888515     1.51700
Co2917     Co  0.54376989  0.75727343  0.98287677     1.51600
Co2918     Co  0.54733658  0.75248911  0.04272553     1.51500
O2919       O  0.55258025  0.73618443  0.01212975    -1.41900
C2920       C  0.97678415  0.79447374  0.03508338     1.09600
C2921       C  0.62136008  0.78679036  0.98517714     1.09700
C2922       C  0.49523494  0.79881030  0.96997842     1.09700
C2923       C  0.62751644  0.77126256  0.04201306     1.09600
N2924       N  0.79847930  0.87354546  0.91746851    -0.36500
N2925       N  0.73577206  0.88002859  0.88785002    -0.57000
N2926       N  0.79415048  0.90123901  0.85525163    -0.36500
N2927       N  0.85678439  0.89692717  0.88631406    -0.57000
C2928       C  0.76699156  0.87538060  0.93080529     0.27100
C2929       C  0.83133667  0.87867471  0.92907610     0.27100
C2930       C  0.75955241  0.90962658  0.84584952     0.27100
C2931       C  0.82333509  0.92247203  0.84584981     0.27100
C2932       C  0.71573125  0.86311312  0.90403760     0.35700
C2933       C  0.71420029  0.87415038  0.87025578     0.35700
C2934       C  0.88043499  0.87911141  0.90011173     0.35700
C2935       C  0.87790885  0.90062150  0.86820382     0.35700
C2936       C  0.78014178  0.88317225  0.95110083    -0.21700
C2937       C  0.82090020  0.88482450  0.95002324    -0.21700
C2938       C  0.76681926  0.93677161  0.83027689    -0.21700
C2939       C  0.80704800  0.94465406  0.83019142    -0.21700
C2940       C  0.68110361  0.84652335  0.89668518    -0.22800
C2941       C  0.68015693  0.85339395  0.87532407    -0.22800
C2942       C  0.91678663  0.87148182  0.89072558    -0.22800
C2943       C  0.91534280  0.88559167  0.87054289    -0.25200
C2944       C  0.72779988  0.86437636  0.92546331    -0.18100
C2945       C  0.86995130  0.87189604  0.92138687    -0.18100
C2946       C  0.86444723  0.91982865  0.85017994    -0.18100
C2947       C  0.72221730  0.89184372  0.85047468    -0.18100
H2948       H  0.76235013  0.88527550  0.96537465     0.14800
H2949       H  0.84065699  0.88835774  0.96321054     0.14800
H2950       H  0.74545545  0.94912260  0.81981571     0.14800
H2951       H  0.82259175  0.96414739  0.81966247     0.14800
H2952       H  0.65851779  0.83165842  0.90578050     0.13000
H2953       H  0.65655667  0.84499044  0.86481648     0.13000
H2954       H  0.94192860  0.85780643  0.89774278     0.13000
H2955       H  0.93904640  0.88487889  0.85891520     0.13000
H2956       H  0.79833829  0.86269166  0.90209250     0.26300
H2957       H  0.79805623  0.87918497  0.86601640     0.26300
N2958       N  0.78750726  0.63561758  0.90380076    -0.36500
N2959       N  0.73371741  0.63896197  0.86904146    -0.57000
N2960       N  0.79932767  0.62804896  0.83908053    -0.36500
N2961       N  0.85310551  0.62762903  0.87294274    -0.57000
C2962       C  0.75436342  0.64851180  0.91367380     0.27100
C2963       C  0.81872628  0.64770867  0.91532600     0.27100
C2964       C  0.77064535  0.64085310  0.82634690     0.27100
C2965       C  0.83414942  0.63074588  0.82835136     0.27100
C2966       C  0.70802402  0.63251561  0.88518663     0.35700
C2967       C  0.71418020  0.63039534  0.85114005     0.35700
C2968       C  0.87147448  0.62283621  0.89146677     0.35700
C2969       C  0.87746531  0.61355048  0.85772247     0.35700
C2970       C  0.76447757  0.66764054  0.93215415    -0.21700
C2971       C  0.80512270  0.66755584  0.93307530    -0.21700
C2972       C  0.78753957  0.65223659  0.80728325    -0.21700
C2973       C  0.82761724  0.64559265  0.80850616    -0.21700
C2974       C  0.67204569  0.61968376  0.87761440    -0.22800
C2975       C  0.67613758  0.61760881  0.85603273    -0.22800
C2976       C  0.90755355  0.60528117  0.88817401    -0.22800
C2977       C  0.91126044  0.59918276  0.86679248    -0.22800
C2978       C  0.71537122  0.64335688  0.90624954    -0.18100
C2979       C  0.85896252  0.63997883  0.91058963    -0.18100
C2980       C  0.87101779  0.61781696  0.83581009    -0.18100
C2981       C  0.72942650  0.63714487  0.83054900    -0.18100
H2982       H  0.74471762  0.68104051  0.94354248     0.14800
H2983       H  0.82256322  0.68064015  0.94546713     0.14800
H2984       H  0.77233040  0.66288028  0.79364098     0.14800
H2985       H  0.84937048  0.65063665  0.79614001     0.14800
H2986       H  0.64554786  0.61310542  0.88668569     0.13000
H2987       H  0.65331850  0.60847011  0.84523373     0.13000
H2988       H  0.92960760  0.59923332  0.89986565     0.13000
H2989       H  0.93701938  0.58756105  0.85889396     0.13000
H2990       H  0.78858924  0.61742131  0.89065412     0.26300
H2991       H  0.79458173  0.61311913  0.85305852     0.26300
O2992       O  0.58424915  0.92658127  0.74395419    -0.80000
O2993       O  0.57457364  0.58997310  0.77401027    -0.80000
O2994       O  0.61061688  0.53158603  0.70860679    -0.80000
O2995       O  0.60793638  0.97187106  0.79254967    -0.80000
O2996       O  0.60177592  0.56837685  0.73687996    -0.80100
O2997       O  0.56665552  0.92454196  0.78641584    -0.80000
O2998       O  0.61068678  0.54327018  0.78481308    -0.80000
O2999       O  0.62714499  0.97415548  0.73951977    -0.80000
C3000       C  0.61819981  0.93829196  0.73816272     1.09700
C3001       C  0.60709095  0.57835515  0.78127492     1.09600
C3002       C  0.61707999  0.56324674  0.71825794     1.09700
C3003       C  0.59801404  0.93756348  0.79511244     1.09600
O3004       O  0.49076443  0.95984501  0.77693165    -0.80000
O3005       O  0.53136543  0.60126330  0.73869702    -0.80100
O3006       O  0.56070600  0.97178017  0.71435302    -0.80000
O3007       O  0.52653477  0.55262416  0.79690244    -0.80000
O3008       O  0.49581291  0.55413159  0.76675004    -0.80000
O3009       O  0.50958193  0.95820722  0.73417119    -0.80000
O3010       O  0.52374869  0.97663201  0.80517895    -0.80000
O3011       O  0.53456186  0.54654307  0.71996517    -0.80000
Co3012     Co  0.53836646  0.94629545  0.76040189     1.51500
Co3013     Co  0.54720983  0.55640527  0.75194725     1.51700
Co3014     Co  0.58439788  0.01196882  0.73326749     1.51600
Co3015     Co  0.56784286  0.01125510  0.79364723     1.51500
O3016       O  0.55951888  0.00197132  0.76218967    -1.41900
C3017       C  0.49221488  0.96388238  0.79670779     1.09600
C3018       C  0.52384301  0.58238820  0.72201744     1.09700
C3019       C  0.52825698  0.95390910  0.71683354     1.09700
C3020       C  0.49543696  0.55923205  0.78646847     1.09600
N3021       N  0.78261253  0.62080083  0.17488145    -0.36500
N3022       N  0.72133677  0.61565024  0.14423789    -0.57000
N3023       N  0.78148688  0.62365559  0.10930100    -0.36500
N3024       N  0.84153336  0.63278469  0.13995775    -0.57000
C3025       C  0.75240682  0.60276266  0.18514666     0.27100
C3026       C  0.81639658  0.60463612  0.18153293     0.27100
C3027       C  0.74780532  0.62393414  0.09797709     0.27100
C3028       C  0.81239016  0.63248074  0.09608128     0.27100
C3029       C  0.69835769  0.60832193  0.16153177     0.35700
C3030       C  0.69931087  0.60723703  0.12707822     0.35700
C3031       C  0.86364630  0.63710551  0.15732052     0.35700
C3032       C  0.86377943  0.64453317  0.12336268     0.35700
C3033       C  0.76682597  0.57356509  0.19745699    -0.21700
C3034       C  0.80732793  0.57507784  0.19545214    -0.21700
C3035       C  0.75755004  0.63136540  0.07705496    -0.21700
C3036       C  0.79800144  0.63571778  0.07578296    -0.21700
C3037       C  0.66246532  0.59280611  0.15504745    -0.22800
C3038       C  0.66296931  0.59254352  0.13340032    -0.22800
C3039       C  0.89992301  0.65346590  0.15192978    -0.22800
C3040       C  0.89998083  0.65827962  0.13038547    -0.22800
C3041       C  0.71200386  0.61103567  0.18275488    -0.18100
C3042       C  0.85512053  0.61751176  0.17627164    -0.18100
C3043       C  0.85252290  0.64073343  0.10195035    -0.18100
C3044       C  0.70853291  0.61818340  0.10603263    -0.18100
H3045       H  0.74983954  0.55303572  0.20669622     0.14800
H3046       H  0.82771878  0.55628877  0.20324050     0.14800
H3047       H  0.73782915  0.63384857  0.06388280     0.14800
H3048       H  0.81445957  0.64200426  0.06147146     0.14800
H3049       H  0.63870193  0.58098492  0.16451048     0.13000
H3050       H  0.63898905  0.58317531  0.12337144     0.13000
H3051       H  0.92466131  0.65885615  0.16224281     0.13000
H3052       H  0.92443884  0.66918458  0.12094546     0.13000
H3053       H  0.78035576  0.64483205  0.16520328     0.26300
H3054       H  0.78249596  0.61747066  0.12518864     0.26300
N3055       N  0.80881095  0.87380383  0.17186046    -0.36500
N3056       N  0.74708114  0.85468462  0.14126009    -0.57000
N3057       N  0.80554090  0.84913680  0.10866112    -0.36500
N3058       N  0.86739978  0.86969913  0.13850112    -0.57000
C3059       C  0.77650723  0.88929155  0.18131569     0.27100
C3060       C  0.84116255  0.88980683  0.18099959     0.27100
C3061       C  0.77258357  0.84335064  0.09718443     0.27100
C3062       C  0.83572571  0.85519681  0.09491124     0.27100
C3063       C  0.72492653  0.85794644  0.15897230     0.35700
C3064       C  0.72407382  0.83744458  0.12659281     0.35700
C3065       C  0.89054371  0.86548656  0.15563016     0.35700
C3066       C  0.88974150  0.85994357  0.12143042     0.35700
C3067       C  0.78854013  0.91544147  0.19674740    -0.21700
C3068       C  0.82937254  0.91576346  0.19653171    -0.21700
C3069       C  0.78171258  0.84605745  0.07590422    -0.21700
C3070       C  0.82151682  0.85297063  0.07444122    -0.21700
C3071       C  0.68730787  0.84305176  0.15550331    -0.22800
C3072       C  0.68698079  0.82947316  0.13503936    -0.22800
C3073       C  0.92725384  0.85203897  0.14935108    -0.22800
C3074       C  0.92766331  0.85141866  0.12783752    -0.22800
C3075       C  0.73664656  0.87877293  0.17712626    -0.18100
C3076       C  0.88070711  0.87919805  0.17623200    -0.18100
C3077       C  0.87617400  0.85676939  0.10025722    -0.18100
C3078       C  0.73526430  0.83203661  0.10523987    -0.18100
H3079       H  0.76985065  0.93221404  0.20725414     0.14800
H3080       H  0.84818866  0.93298545  0.20668329     0.14800
H3081       H  0.76210547  0.84160266  0.06272361     0.14800
H3082       H  0.83796670  0.85389266  0.05976796     0.14800
H3083       H  0.66244666  0.84280075  0.16642184     0.13000
H3084       H  0.66189300  0.81670884  0.12705924     0.13000
H3085       H  0.95211851  0.84505827  0.15909628     0.13000
H3086       H  0.95324921  0.84473167  0.11824094     0.13000
H3087       H  0.80895307  0.85062980  0.16128770     0.26300
H3088       H  0.80837090  0.84321520  0.12456256     0.26300
C3089       C  0.63516675  0.63731213  0.79842730    -0.05600
C3090       C  0.64134824  0.60352321  0.78649608     0.00300
C3091       C  0.68036199  0.58867382  0.78482664    -0.08300
C3092       C  0.70933932  0.60310079  0.79828438    -0.05700
C3093       C  0.70184444  0.63336634  0.81238492     0.00300
C3094       C  0.66548110  0.65333918  0.81100751    -0.08200
C3095       C  0.65678112  0.69009611  0.82326274     0.62200
H3096       H  0.60584550  0.64953323  0.79927629     0.12900
H3097       H  0.73747431  0.58848341  0.79880563     0.12900
C3098       C  0.69286938  0.55556024  0.77049415     0.62400
F3099       F  0.64367443  0.71774640  0.80952251    -0.22700
F3100       F  0.68976059  0.70489803  0.83328935    -0.20100
F3101       F  0.62748368  0.68310530  0.83820242    -0.19700
F3102       F  0.72692298  0.56600493  0.75954482    -0.19800
F3103       F  0.66484822  0.54560842  0.75584849    -0.20100
F3104       F  0.70067465  0.52363993  0.78258105    -0.22800
C3105       C  0.89501607  0.57751182  0.80562629    -0.05600
C3106       C  0.90314940  0.60714355  0.82023870     0.00300
C3107       C  0.94211207  0.62264991  0.82088379    -0.08300
C3108       C  0.97235017  0.60394228  0.80943040    -0.05700
C3109       C  0.96470404  0.57288911  0.79555720     0.00300
C3110       C  0.92469843  0.56053258  0.79287993    -0.08200
C3111       C  0.91054744  0.52953220  0.77753881     0.62200
H3112       H  0.86496421  0.56652067  0.80463451     0.12900
H3113       H  0.50039842  0.61703428  0.81303239     0.12900
C3114       C  0.95326866  0.65908070  0.83297975     0.62400
F3115       F  0.88804618  0.50239860  0.78828681    -0.22700
F3116       F  0.94040107  0.51034161  0.76715446    -0.20100
F3117       F  0.88711570  0.54638492  0.76257794    -0.19700
F3118       F  0.97652358  0.64986247  0.84994137    -0.19800
F3119       F  0.92063921  0.67914267  0.84018687    -0.20100
F3120       F  0.47572088  0.68635310  0.82279304    -0.22800
C3121       C  0.65607175  0.91941379  0.84400854    -0.05600
C3122       C  0.68780432  0.89779260  0.83601732     0.00300
C3123       C  0.68514812  0.88204614  0.81525666    -0.08300
C3124       C  0.65306864  0.89266186  0.80245766    -0.05700
C3125       C  0.62238631  0.91598755  0.81024766     0.00300
C3126       C  0.62302231  0.92786183  0.83174616    -0.08200
C3127       C  0.58925344  0.95046781  0.84164493     0.62200
H3128       H  0.65780541  0.93043002  0.86002905     0.12900
H3129       H  0.65289861  0.88442215  0.78596629     0.12900
C3130       C  0.71522835  0.85349213  0.80679575     0.62400
F3131       F  0.58975042  0.45945300  0.86053796    -0.22700
F3132       F  0.55389593  0.93148186  0.83780527    -0.20100
F3133       F  0.58500670  0.48907363  0.82954047    -0.19700
F3134       F  0.71778557  0.82294501  0.82053265    -0.19800
F3135       F  0.75191865  0.87084227  0.80467042    -0.20100
F3136       F  0.70466706  0.83888612  0.78721784    -0.22800
C3137       C  0.90223513  0.91321733  0.81630053    -0.05600
C3138       C  0.89501066  0.93479676  0.83474171     0.00300
C3139       C  0.91969953  0.96717164  0.83920616    -0.08300
C3140       C  0.95077439  0.97667729  0.82497680    -0.05700
C3141       C  0.95856540  0.95469082  0.80664603     0.00300
C3142       C  0.93393181  0.92201816  0.80233372    -0.08200
C3143       C  0.94219435  0.89494818  0.78384043     0.62200
H3144       H  0.88352086  0.88827305  0.81337844     0.12900
H3145       H  0.96970145  0.00133677  0.82821859     0.12900
C3146       C  0.91351287  0.99150533  0.85900657     0.62400
F3147       F  0.91814165  0.86241792  0.78439649    -0.22700
F3148       F  0.98099376  0.88289528  0.78437950    -0.20100
F3149       F  0.93552605  0.91349417  0.76504481    -0.19700
F3150       F  0.92186065  0.97027443  0.87668744    -0.19800
F3151       F  0.87478135  0.00366045  0.86023653    -0.20100
F3152       F  0.93785483  0.02380064  0.85914846    -0.22800
C3153       C  0.62177078  0.67305513  0.08361633    -0.05600
C3154       C  0.61649535  0.65523724  0.06370841     0.00300
C3155       C  0.63842596  0.62130197  0.05908865    -0.08300
C3156       C  0.66623009  0.60843563  0.07392490    -0.05700
C3157       C  0.67442793  0.62937429  0.09250855     0.00300
C3158       C  0.65117286  0.66203687  0.09763068    -0.08200
C3159       C  0.65678981  0.68625422  0.11764044     0.62200
H3160       H  0.60399180  0.69768045  0.08795150     0.12900
H3161       H  0.68367257  0.58309156  0.07055142     0.12900
C3162       C  0.63400505  0.59936721  0.03846387     0.62400
F3163       F  0.64311670  0.72336092  0.11512267    -0.22700
F3164       F  0.69611453  0.68935591  0.12296483    -0.20100
F3165       F  0.63588858  0.66976338  0.13415866    -0.19700
F3166       F  0.64954624  0.62121649  0.02219193    -0.19800
F3167       F  0.59450788  0.59136015  0.03489938    -0.20100
F3168       F  0.65387148  0.56470998  0.03855652    -0.22800
C3169       C  0.87655550  0.68367905  0.07324363    -0.05600
C3170       C  0.88301601  0.65065260  0.08504923     0.00300
C3171       C  0.91822429  0.62942889  0.08073845    -0.08300
C3172       C  0.94623453  0.64376921  0.06573853    -0.05700
C3173       C  0.93873521  0.67616265  0.05329275     0.00300
C3174       C  0.90140316  0.69454036  0.05633751    -0.08200
C3175       C  0.88439017  0.72385847  0.04163391     0.62200
H3176       H  0.85011931  0.70020197  0.07655497     0.12900
H3177       H  0.97423803  0.62925737  0.06364958     0.12900
C3178       C  0.92806794  0.59174134  0.09128455     0.62400
F3179       F  0.84430909  0.71707029  0.03905827    -0.22700
F3180       F  0.90130159  0.72138833  0.02197663    -0.20100
F3181       F  0.88936018  0.76047651  0.04986163    -0.19700
F3182       F  0.89833812  0.57822653  0.10447927    -0.19800
F3183       F  0.96207871  0.59661087  0.10292065    -0.20100
F3184       F  0.93470565  0.56390239  0.07590235    -0.22800
C3185       C  0.68401493  0.76452135  0.06633290    -0.05600
C3186       C  0.65512610  0.78863945  0.05784874     0.00300
C3187       C  0.65174795  0.82709133  0.06593300    -0.08300
C3188       C  0.67774351  0.83966872  0.08183255    -0.05700
C3189       C  0.70639855  0.81548191  0.08999386     0.00300
C3190       C  0.70967774  0.77729694  0.08229987    -0.08200
C3191       C  0.74029388  0.75025351  0.09101036     0.62200
H3192       H  0.68623891  0.73518256  0.06050964     0.12900
H3193       H  0.67624286  0.86881725  0.08802970     0.12900
C3194       C  0.62136892  0.85528475  0.05799698     0.62400
F3195       F  0.73455041  0.71289250  0.08385491    -0.22700
F3196       F  0.73804707  0.75025990  0.11281017    -0.20100
F3197       F  0.77778720  0.76202416  0.08485678    -0.19700
F3198       F  0.58380025  0.84334138  0.06403189    -0.19800
F3199       F  0.62392515  0.85764898  0.03624151    -0.20100
F3200       F  0.62720130  0.89203785  0.06617207    -0.22800
C3201       C  0.92354613  0.81011288  0.08620781    -0.05600
C3202       C  0.90500748  0.84540975  0.08341300     0.00300
C3203       C  0.91403142  0.86709825  0.06494470    -0.08300
C3204       C  0.93717611  0.84956932  0.04890637    -0.05700
C3205       C  0.95701414  0.81510103  0.05267022     0.00300
C3206       C  0.95473478  0.79919853  0.07318834    -0.08200
C3207       C  0.48366047  0.76873692  0.08535020     0.62200
H3208       H  0.91734330  0.79350742  0.10031053     0.12900
H3209       H  0.94088580  0.86346378  0.03375291     0.12900
C3210       C  0.90059352  0.90803949  0.06138168     0.62400
F3211       F  0.48972960  0.78214914  0.10568039    -0.22700
F3212       F  0.52021307  0.76927348  0.07549745    -0.20100
F3213       F  0.97345372  0.73903251  0.08742362    -0.19700
F3214       F  0.87952925  0.92306551  0.07832382    -0.19800
F3215       F  0.87726870  0.90917976  0.04364304    -0.20100
F3216       F  0.93345357  0.93135748  0.05807980    -0.22800
C3217       C  0.71460948  0.81889439  0.95494815    -0.05600
C3218       C  0.70072190  0.84932271  0.94274949     0.00300
C3219       C  0.66224055  0.86350719  0.94732135    -0.08300
C3220       C  0.63738243  0.84302256  0.96155184    -0.05700
C3221       C  0.65083420  0.81133935  0.97311063     0.00300
C3222       C  0.69154159  0.80147897  0.97093823    -0.08200
C3223       C  0.71171298  0.77340864  0.98546297     0.62200
H3224       H  0.74421901  0.80856763  0.95182913     0.12900
H3225       H  0.60708002  0.85216960  0.96367261     0.12900
C3226       C  0.64618423  0.90030077  0.93816556     0.62400
F3227       F  0.70278985  0.73588911  0.97955222    -0.22700
F3228       F  0.69976949  0.77993967  0.00614808    -0.20100
F3229       F  0.75243275  0.77798494  0.98469314    -0.19700
F3230       F  0.61570451  0.89137962  0.92459129    -0.19800
F3231       F  0.67455491  0.92161768  0.92742867    -0.20100
F3232       F  0.63162781  0.92327845  0.95439723    -0.22800
C3233       C  0.92532136  0.79628430  0.95193817    -0.05600
C3234       C  0.96037317  0.81592662  0.95694291     0.00300
C3235       C  0.96403665  0.85556129  0.95241612    -0.08300
C3236       C  0.93333302  0.87359723  0.94142244    -0.05700
C3237       C  0.89908614  0.85310159  0.93536713     0.00300
C3238       C  0.89463248  0.81384826  0.94105950    -0.08200
C3239       C  0.85775782  0.79024762  0.93582472     0.62200
H3240       H  0.92186702  0.76681488  0.95683527     0.12900
H3241       H  0.93605081  0.90364641  0.93714536     0.12900
C3242       C  0.50134782  0.88276549  0.95720652     0.62400
F3243       F  0.86296339  0.75139430  0.93938194    -0.22700
F3244       F  0.84810562  0.79435770  0.91483545    -0.20100
F3245       F  0.82657032  0.80221675  0.94843625    -0.19700
F3246       F  0.53401031  0.86633193  0.94757564    -0.19800
F3247       F  0.50718675  0.88484381  0.97876093    -0.20100
F3248       F  0.49763898  0.91990725  0.94977888    -0.22800
C3249       C  0.63794434  0.70453090  0.93454122    -0.05600
C3250       C  0.62150034  0.67864366  0.94937245     0.00300
C3251       C  0.63342607  0.63941347  0.94832835    -0.08300
C3252       C  0.66383320  0.62871756  0.93391626    -0.05700
C3253       C  0.68129599  0.65535343  0.92002125     0.00300
C3254       C  0.66704932  0.69346510  0.91969435    -0.08200
C3255       C  0.68260788  0.72241785  0.90366569     0.62200
H3256       H  0.62852771  0.73422024  0.93490774     0.12900
H3257       H  0.67455522  0.59943765  0.93348908     0.12900
C3258       C  0.61374480  0.60863613  0.96178955     0.62400
F3259       F  0.66576291  0.75821009  0.90653340    -0.22700
F3260       F  0.67384267  0.70968535  0.88350500    -0.20100
F3261       F  0.72306558  0.72690442  0.90537738    -0.19700
F3262       F  0.62524475  0.57196718  0.95568774    -0.19800
F3263       F  0.57314684  0.61056801  0.95986527    -0.20100
F3264       F  0.62379546  0.61386912  0.98265070    -0.22800
C3265       C  0.93996940  0.69892924  0.93725486    -0.05600
C3266       C  0.93883586  0.68342509  0.95756911     0.00300
C3267       C  0.91506520  0.65048462  0.96171405    -0.08300
C3268       C  0.89116752  0.63552912  0.94549027    -0.05700
C3269       C  0.88963981  0.65328636  0.92572982     0.00300
C3270       C  0.91464268  0.68543779  0.92137715    -0.08200
C3271       C  0.91327334  0.70691875  0.90057970     0.62200
H3272       H  0.95934700  0.72338102  0.93428359     0.12900
H3273       H  0.87209479  0.61081381  0.94834580     0.12900
C3274       C  0.91550209  0.63089257  0.98296897     0.62400
F3275       F  0.93420866  0.74139042  0.90145078    -0.22700
F3276       F  0.87466118  0.71532788  0.89561742    -0.20100
F3277       F  0.92970862  0.68471744  0.88464313    -0.19700
F3278       F  0.90146804  0.65558081  0.99846648    -0.19800
F3279       F  0.95373408  0.62055637  0.98760908    -0.20100
F3280       F  0.89207201  0.59792991  0.98319039    -0.22800
C3281       C  0.94072021  0.89311200  0.22736983    -0.05600
C3282       C  0.97548134  0.91057522  0.21919869     0.00300
C3283       C  0.98185225  0.90932154  0.19729332    -0.08300
C3284       C  0.94915911  0.90361558  0.18434176    -0.05700
C3285       C  0.91351626  0.88690674  0.19191014     0.00300
C3286       C  0.91116104  0.87798662  0.21388467    -0.08200
C3287       C  0.87912610  0.85285653  0.22394179     0.62200
H3288       H  0.93634778  0.89152902  0.24431808     0.12900
H3289       H  0.95234044  0.91170626  0.16796118     0.12900
C3290       C  0.51467501  0.90059855  0.19078098     0.62400
F3291       F  0.89656192  0.82517214  0.23618356    -0.22700
F3292       F  0.85615334  0.83353096  0.20932189    -0.20100
F3293       F  0.85504841  0.87520777  0.23680150    -0.19700
F3294       F  0.53898458  0.87707808  0.20222980    -0.19800
F3295       F  0.52884058  0.93797939  0.19179648    -0.20100
F3296       F  0.51664105  0.88856482  0.16988988    -0.22800
C3297       C  0.65792051  0.89553692  0.21964803    -0.05600
C3298       C  0.64193444  0.93078831  0.21309352     0.00300
C3299       C  0.65713288  0.94805633  0.19435615    -0.08300
C3300       C  0.68822664  0.92997694  0.18337225    -0.05700
C3301       C  0.70457966  0.89565424  0.19034280     0.00300
C3302       C  0.68900799  0.87754147  0.20851128    -0.08200
C3303       C  0.70511173  0.83941691  0.21592809     0.62200
H3304       H  0.64611303  0.88227137  0.23381566     0.12900
H3305       H  0.70056483  0.94266732  0.16915946     0.12900
C3306       C  0.64256573  0.98626670  0.18637865     0.62400
F3307       F  0.69973173  0.81149710  0.20048500    -0.22700
F3308       F  0.68629309  0.82696274  0.23419731    -0.20100
F3309       F  0.74501264  0.84323674  0.21996731    -0.19700
F3310       F  0.66310294  0.99824776  0.16853947    -0.19800
F3311       F  0.62683073  0.52935823  0.19247101    -0.20100
F3312       F  0.60306410  0.98326495  0.18128641    -0.22800
C3313       C  0.91995025  0.58391484  0.22102818    -0.05600
C3314       C  0.94532641  0.55881749  0.20999287     0.00300
C3315       C  0.94433947  0.55748555  0.18765941    -0.08300
C3316       C  0.91520898  0.57828563  0.17737272    -0.05700
C3317       C  0.88881477  0.60223853  0.18842685     0.00300
C3318       C  0.89259676  0.60683054  0.21057624    -0.08200
C3319       C  0.86889430  0.63509317  0.22393336     0.62200
H3320       H  0.92194311  0.58612922  0.23807676     0.12900
H3321       H  0.91177676  0.57486771  0.16048830     0.12900
C3322       C  0.44707893  0.50005987  0.17930075     0.62400
F3323       F  0.89456009  0.65820805  0.23539532    -0.22700
F3324       F  0.84485509  0.61492882  0.23786604    -0.20100
F3325       F  0.84568708  0.65899669  0.21211475    -0.19700
F3326       F  0.47540572  0.48272257  0.19114592    -0.19800
F3327       F  0.46378158  0.50887767  0.15987187    -0.20100
F3328       F  0.41621514  0.47426181  0.17629732    -0.22800
C3329       C  0.66868047  0.58926546  0.23759124    -0.05600
C3330       C  0.62859295  0.58429035  0.23262399     0.00300
C3331       C  0.61473581  0.60378184  0.21450897    -0.08300
C3332       C  0.64293557  0.61780877  0.19966847    -0.05700
C3333       C  0.68374327  0.61174352  0.20206786     0.00300
C3334       C  0.69552105  0.60691672  0.22341427    -0.08200
C3335       C  0.73182775  0.62579590  0.23302846     0.62200
H3336       H  0.67897769  0.58003774  0.25284797     0.12900
H3337       H  0.63289277  0.63180273  0.18561739     0.12900
C3338       C  0.57141035  0.60590615  0.20906669     0.62400
F3339       F  0.72020182  0.64811223  0.25020061    -0.22700
F3340       F  0.75135779  0.65004744  0.21912223    -0.20100
F3341       F  0.75738289  0.59807074  0.24006241    -0.19700
F3342       F  0.54908939  0.61619338  0.22662598    -0.19800
F3343       F  0.55907759  0.57058148  0.20136361    -0.20100
F3344       F  0.56481814  0.63305061  0.19367803    -0.22800
C3345       C  0.69215359  0.62737954  0.68827212    -0.05600
C3346       C  0.67199222  0.66284710  0.68814813     0.00300
C3347       C  0.63591167  0.66562965  0.69984276    -0.08300
C3348       C  0.62047836  0.63242197  0.70976811    -0.05700
C3349       C  0.63879265  0.59636819  0.70829659     0.00300
C3350       C  0.67590562  0.59391014  0.69785713    -0.08200
C3351       C  0.69849061  0.55644940  0.69713369     0.62200
H3352       H  0.72009799  0.62565418  0.67981732     0.12900
H3353       H  0.59280970  0.63413326  0.71841913     0.12900
C3354       C  0.61258532  0.70278255  0.70162421     0.62400
F3355       F  0.73563598  0.56113412  0.68805529    -0.22700
F3356       F  0.67799073  0.52919364  0.68544502    -0.20100
F3357       F  0.70326119  0.54301404  0.71737617    -0.19700
F3358       F  0.60548118  0.71727478  0.68180836    -0.19800
F3359       F  0.63299703  0.72978403  0.71342286    -0.20100
F3360       F  0.57659181  0.69704323  0.71174670    -0.22800
C3361       C  0.64935062  0.84693452  0.70865670    -0.05600
C3362       C  0.67953620  0.86046064  0.69528932     0.00300
C3363       C  0.69436233  0.89860240  0.69862438    -0.08300
C3364       C  0.67510882  0.92287260  0.71356475    -0.05700
C3365       C  0.64346791  0.90960624  0.72634971     0.00300
C3366       C  0.63232524  0.86969768  0.72468372    -0.08200
C3367       C  0.60066557  0.85037384  0.73842656     0.62200
H3368       H  0.63784930  0.81808606  0.70591669     0.12900
H3369       H  0.68428660  0.95282005  0.71479185     0.12900
C3370       C  0.72970610  0.91510669  0.68666269     0.62400
F3371       F  0.56352880  0.85952395  0.73124770    -0.22700
F3372       F  0.60440858  0.86170739  0.75926765    -0.20100
F3373       F  0.60380240  0.81061423  0.73788493    -0.19700
F3374       F  0.71690799  0.93914901  0.67095449    -0.19800
F3375       F  0.75299519  0.88660777  0.67776876    -0.20100
F3376       F  0.75317320  0.93644817  0.70027272    -0.22800
C3377       C  0.52982479  0.60452207  0.68572779    -0.05600
C3378       C  0.50667505  0.60282286  0.70416541     0.00300
C3379       C  0.97710339  0.61933262  0.70301584    -0.08300
C3380       C  0.96859052  0.64667141  0.68747602    -0.05700
C3381       C  0.99630327  0.65594454  0.67157368     0.00300
C3382       C  0.52182123  0.63073196  0.66967811    -0.08200
C3383       C  0.55015732  0.63379668  0.65092079     0.62200
H3384       H  0.55586378  0.58671277  0.68458518     0.12900
H3385       H  0.94073210  0.66173100  0.68791943     0.12900
C3386       C  0.94676091  0.60944962  0.72000369     0.62400
F3387       F  0.58482834  0.61411721  0.65430828    -0.22700
F3388       F  0.56020285  0.67188071  0.64721971    -0.20100
F3389       F  0.53264930  0.61818380  0.63317102    -0.19700
F3390       F  0.95900542  0.62375962  0.73930261    -0.19800
F3391       F  0.94230219  0.56984711  0.72125727    -0.20100
F3392       F  0.91020604  0.62482840  0.71569930    -0.22800
C3393       C  0.98844886  0.89900347  0.70355041    -0.05600
C3394       C  0.51583074  0.92339629  0.70118649     0.00300
C3395       C  0.53640825  0.91607907  0.68173440    -0.08300
C3396       C  0.52569807  0.88345167  0.66962974    -0.05700
C3397       C  0.99814666  0.86038868  0.67167336     0.00300
C3398       C  0.97688141  0.86760301  0.69067504    -0.08200
C3399       C  0.94223980  0.84297007  0.69822144     0.62200
H3400       H  0.97324870  0.90314111  0.71854786     0.12900
H3401       H  0.54170151  0.87685994  0.65514414     0.12900
C3402       C  0.56933274  0.94214141  0.67324467     0.62400
F3403       F  0.91256080  0.86636067  0.70612251    -0.22700
F3404       F  0.95469697  0.81922301  0.71413810    -0.20100
F3405       F  0.92604297  0.82052871  0.68233567    -0.19700
F3406       F  0.60234175  0.93959537  0.68572179    -0.19800
F3407       F  0.55660290  0.97985788  0.67281063    -0.20100
F3408       F  0.58066813  0.93203570  0.65286396    -0.22800
C3409       C  0.90120523  0.63713391  0.54049312    -0.05600
C3410       C  0.92128907  0.60243496  0.53662563     0.00300
C3411       C  0.95924159  0.59761055  0.54545247    -0.08300
C3412       C  0.97414849  0.62661122  0.55908401    -0.05700
C3413       C  0.95195442  0.65940450  0.56440680     0.00300
C3414       C  0.91467264  0.66472510  0.55501255    -0.08200
C3415       C  0.88736391  0.69762499  0.56139809     0.62200
H3416       H  0.87255583  0.64117624  0.53352738     0.12900
H3417       H  0.00238413  0.62283502  0.56660955     0.12900
C3418       C  0.98317356  0.56141954  0.54185354     0.62400
F3419       F  0.84938889  0.69188818  0.55405128    -0.22700
F3420       F  0.90130252  0.73186254  0.55317890    -0.20100
F3421       F  0.88489043  0.70081100  0.58312682    -0.19700
F3422       F  0.97795794  0.54702848  0.52163224    -0.19800
F3423       F  0.97154922  0.53384709  0.55633239    -0.20100
F3424       F  0.02312814  0.56895154  0.54429379    -0.22800
C3425       C  0.90122509  0.83509993  0.55943877    -0.05600
C3426       C  0.93772615  0.84813342  0.56712940     0.00300
C3427       C  0.95171131  0.88529776  0.56191842    -0.08300
C3428       C  0.92631758  0.90997471  0.55144286    -0.05700
C3429       C  0.88842425  0.89807243  0.54473387     0.00300
C3430       C  0.87657928  0.85901479  0.54775098    -0.08200
C3431       C  0.83853829  0.84218303  0.53893321     0.62200
H3432       H  0.89151378  0.80621779  0.56342069     0.12900
H3433       H  0.93657411  0.93918000  0.54861563     0.12900
C3434       C  0.99244989  0.90058331  0.56760904     0.62400
F3435       F  0.83451478  0.80319211  0.54301453    -0.22700
F3436       F  0.83837333  0.84656722  0.51730463    -0.20100
F3437       F  0.80636193  0.86065557  0.54781142    -0.19700
F3438       F  0.01768894  0.87174682  0.57361027    -0.19800
F3439       F  0.98906224  0.92719514  0.58390133    -0.20100
F3440       F  0.00941467  0.91863600  0.55029779    -0.22800
C3441       C  0.80322719  0.62399975  0.57603680    -0.05600
C3442       C  0.78112137  0.61545324  0.55789702     0.00300
C3443       C  0.74457884  0.63462040  0.55512597    -0.08300
C3444       C  0.73292169  0.66328481  0.56972766    -0.05700
C3445       C  0.75551086  0.67255888  0.58740446     0.00300
C3446       C  0.79075222  0.65199714  0.59102048    -0.08200
C3447       C  0.81469103  0.65934485  0.61076124     0.62200
H3448       H  0.83068105  0.60893205  0.57826133     0.12900
H3449       H  0.70567429  0.67873934  0.56752932     0.12900
C3450       C  0.71758206  0.62513740  0.53685670     0.62400
F3451       F  0.85002752  0.63960267  0.61021226    -0.22700
F3452       F  0.79323815  0.64736332  0.62825829    -0.20100
F3453       F  0.82324891  0.69823204  0.61285828    -0.19700
F3454       F  0.71356940  0.58561732  0.53442731    -0.19800
F3455       F  0.73342310  0.64090188  0.51865884    -0.20100
F3456       F  0.68012519  0.63996255  0.54000753    -0.22800
C3457       C  0.72396818  0.90593262  0.55234524    -0.05600
C3458       C  0.74436517  0.93878220  0.55991760     0.00300
C3459       C  0.75121867  0.94123466  0.58203972    -0.08300
C3460       C  0.74362498  0.90883273  0.59483085    -0.05700
C3461       C  0.72503238  0.87510531  0.58717934     0.00300
C3462       C  0.71266538  0.87489614  0.56570824    -0.08200
C3463       C  0.68714163  0.84341528  0.55596613     0.62200
H3464       H  0.71770477  0.90379779  0.53563991     0.12900
H3465       H  0.75241415  0.90991274  0.61121378     0.12900
C3466       C  0.76790886  0.97726123  0.59258629     0.62400
F3467       F  0.65448033  0.85996792  0.54696948    -0.22700
F3468       F  0.67345805  0.81671993  0.57039904    -0.20100
F3469       F  0.70853711  0.82449717  0.54035618    -0.19700
F3470       F  0.75746360  0.01007043  0.58184145    -0.19800
F3471       F  0.80863237  0.97499725  0.59336068    -0.20100
F3472       F  0.75320751  0.98091186  0.61299853    -0.22800
C3473       C  0.61761604  0.60967447  0.34154823    -0.05600
C3474       C  0.65563184  0.62491625  0.33938990     0.00300
C3475       C  0.68355885  0.60672661  0.32582639    -0.08300
C3476       C  0.67099303  0.57464995  0.31364495    -0.05700
C3477       C  0.63297017  0.55886180  0.31650939     0.00300
C3478       C  0.60742334  0.57470939  0.33228417    -0.08200
C3479       C  0.56949974  0.55594451  0.34048657     0.62200
H3480       H  0.59700675  0.62323536  0.35252753     0.12900
H3481       H  0.69026189  0.56231207  0.30165078     0.12900
C3482       C  0.72604934  0.62084947  0.32449591     0.62400
F3483       F  0.56942545  0.55631852  0.36233423    -0.22700
F3484       F  0.56550546  0.51800345  0.33423370    -0.20100
F3485       F  0.53737193  0.57656080  0.33379172    -0.19700
F3486       F  0.74834790  0.59859696  0.31066454    -0.19800
F3487       F  0.74288278  0.61914737  0.34422434    -0.20100
F3488       F  0.72760697  0.65843643  0.31757434    -0.22800
C3489       C  0.66505128  0.84740370  0.32797455    -0.05600
C3490       C  0.63718204  0.82491326  0.33904684     0.00300
C3491       C  0.59652196  0.83153990  0.33627278    -0.08300
C3492       C  0.58501826  0.86097446  0.32262354    -0.05700
C3493       C  0.61262703  0.88510486  0.31204122     0.00300
C3494       C  0.65372550  0.87762417  0.31456256    -0.08200
C3495       C  0.68585008  0.90137517  0.30365492     0.62200
H3496       H  0.69600574  0.84160911  0.33044720     0.12900
H3497       H  0.55378978  0.86609767  0.32080355     0.12900
C3498       C  0.56539063  0.80850507  0.34840210     0.62400
F3499       F  0.72323985  0.88748206  0.30749747    -0.22700
F3500       F  0.68473375  0.93904558  0.31096690    -0.20100
F3501       F  0.68046352  0.90040002  0.28204833    -0.19700
F3502       F  0.52741633  0.81822120  0.34280137    -0.19800
F3503       F  0.56921923  0.81552043  0.36979689    -0.20100
F3504       F  0.57001854  0.76956769  0.34443737    -0.22800
C3505       C  0.71254744  0.58895633  0.47558272    -0.05600
C3506       C  0.73682176  0.56141293  0.46549042     0.00300
C3507       C  0.74189149  0.56398730  0.44328782    -0.08300
C3508       C  0.73255005  0.59817597  0.43324523    -0.05700
C3509       C  0.70855549  0.62598689  0.44299819     0.00300
C3510       C  0.69568834  0.61965760  0.46420079    -0.08200
C3511       C  0.66331855  0.64266740  0.47511540     0.62200
H3512       H  0.70627670  0.58628989  0.49229366     0.12900
H3513       H  0.74113598  0.60159231  0.41681121     0.12900
C3514       C  0.75481166  0.53036495  0.42956322     0.62400
F3515       F  0.63342808  0.61767020  0.48144957    -0.22700
F3516       F  0.64675684  0.66995429  0.46234412    -0.20100
F3517       F  0.67820924  0.66124346  0.49268901    -0.19700
F3518       F  0.73510453  0.53046280  0.41054348    -0.19800
F3519       F  0.79501081  0.53278725  0.42549039    -0.20100
F3520       F  0.74543498  0.49599113  0.43934988    -0.22800
C3521       C  0.71803117  0.86914495  0.47083916    -0.05600
C3522       C  0.75008044  0.89021738  0.46220893     0.00300
C3523       C  0.76181411  0.88311575  0.44085059    -0.08300
C3524       C  0.74450127  0.85177397  0.43017706    -0.05700
C3525       C  0.71406894  0.82973549  0.43929857     0.00300
C3526       C  0.69889964  0.83971025  0.45942712    -0.08200
C3527       C  0.66220589  0.82010866  0.46849573     0.62200
H3528       H  0.70801962  0.87584281  0.48674754     0.12900
H3529       H  0.75423795  0.84420407  0.41433104     0.12900
C3530       C  0.79185819  0.90784656  0.42895524     0.62400
F3531       F  0.64998665  0.83722801  0.48726685    -0.22700
F3532       F  0.66960199  0.78180055  0.47236981    -0.20100
F3533       F  0.63162629  0.82254134  0.45431771    -0.19700
F3534       F  0.82812543  0.90633974  0.43840957    -0.19800
F3535       F  0.77945844  0.94551070  0.42861500    -0.20100
F3536       F  0.79662833  0.89585534  0.40817931    -0.22800
C3537       C  0.99255245  0.66379673  0.30880158    -0.05600
C3538       C  0.95232104  0.66483892  0.31439091     0.00300
C3539       C  0.92638834  0.63722055  0.30509223    -0.08300
C3540       C  0.94265867  0.60558878  0.29400938    -0.05700
C3541       C  0.98351022  0.60238281  0.29038751     0.00300
C3542       C  0.00835296  0.63394682  0.29616534    -0.08200
C3543       C  0.05109581  0.63846350  0.28925209     0.62200
H3544       H  0.01221400  0.68595334  0.31496738     0.12900
H3545       H  0.92326525  0.58243706  0.28874032     0.12900
C3546       C  0.88170892  0.63909891  0.30684571     0.62400
F3547       F  0.05473674  0.67061421  0.27662053    -0.22700
F3548       F  0.06481835  0.60726324  0.27794895    -0.20100
F3549       F  0.07461908  0.64386469  0.30665905    -0.19700
F3550       F  0.86866069  0.67156018  0.31752993    -0.19800
F3551       F  0.86730799  0.60684231  0.31716209    -0.20100
F3552       F  0.86618938  0.63961912  0.28676750    -0.22800
C3553       C  0.94087858  0.89476541  0.34060822    -0.05600
C3554       C  0.91851084  0.86624492  0.33017620     0.00300
C3555       C  0.90380664  0.87452301  0.30976139    -0.08300
C3556       C  0.91734442  0.90829363  0.29944245    -0.05700
C3557       C  0.94147673  0.93547621  0.30980603     0.00300
C3558       C  0.94979727  0.93018985  0.33143379    -0.08200
C3559       C  0.97070595  0.96015876  0.34508902     0.62200
H3560       H  0.95165514  0.88939686  0.35634112     0.12900
H3561       H  0.91052095  0.91247599  0.28296111     0.12900
C3562       C  0.87461892  0.84890406  0.29816714     0.62400
F3563       F  0.94969668  0.96510945  0.36377506    -0.22700
F3564       F  0.97367022  0.99573066  0.33552729    -0.20100
F3565       F  0.50088326  0.96831734  0.33656865    -0.19700
F3566       F  0.85806506  0.82079654  0.31090679    -0.19800
F3567       F  0.89341314  0.83143318  0.28117450    -0.20100
F3568       F  0.84417224  0.87113583  0.29076243    -0.22800
C3569       C  0.85310272  0.62011026  0.44476719    -0.05600
C3570       C  0.87986737  0.59820132  0.45621641     0.00300
C3571       C  0.92096286  0.60094539  0.45121828    -0.08300
C3572       C  0.93348865  0.62519272  0.43462343    -0.05700
C3573       C  0.90654617  0.64688737  0.42324340     0.00300
C3574       C  0.86570693  0.64451442  0.42837530    -0.08200
C3575       C  0.83553580  0.66795847  0.41661717     0.62200
H3576       H  0.82190095  0.61752446  0.44858599     0.12900
H3577       H  0.96458618  0.62817108  0.43065749     0.12900
C3578       C  0.95175695  0.57999249  0.46387963     0.62400
F3579       F  0.83700837  0.65869071  0.39536007    -0.22700
F3580       F  0.84341606  0.70684295  0.41923252    -0.20100
F3581       F  0.79744611  0.66095478  0.42386003    -0.19700
F3582       F  0.94910480  0.54075791  0.46012388    -0.19800
F3583       F  0.94589783  0.58745674  0.48516141    -0.20100
F3584       F  0.98979647  0.59179815  0.45859346    -0.22800
C3585       C  0.93143710  0.87120334  0.43685244    -0.05600
C3586       C  0.90703918  0.83832275  0.43568943     0.00300
C3587       C  0.87666977  0.83293521  0.45095121    -0.08300
C3588       C  0.87246012  0.86058176  0.46712992    -0.05700
C3589       C  0.89331212  0.89606147  0.46686644     0.00300
C3590       C  0.92427837  0.90099027  0.45167835    -0.08200
C3591       C  0.94767621  0.93831064  0.44966966     0.62200
H3592       H  0.95414316  0.87479216  0.42479987     0.12900
H3593       H  0.84876176  0.85666880  0.47849427     0.12900
C3594       C  0.84587444  0.80077310  0.44891874     0.62400
F3595       F  0.98138525  0.93355073  0.43733519    -0.22700
F3596       F  0.95929224  0.95129157  0.46936246    -0.20100
F3597       F  0.92466047  0.96576345  0.44023197    -0.19700
F3598       F  0.86301089  0.76522740  0.45119641    -0.19800
F3599       F  0.82837423  0.80241288  0.42934818    -0.20100
F3600       F  0.81627848  0.80390110  0.46410604    -0.22800
loop_ 
_geom_bond_atom_site_label_1 
_geom_bond_atom_site_label_2 
_geom_bond_distance 
_geom_bond_site_symmetry_2 
_ccdc_geom_bond_type 
N1            C6   1.341       .  A
N1            C5   1.350       .  A
N1           H33   1.040       .  S
N2            C9   1.355       .  A
N2           C10   1.350       .  A
N3            C8   1.362       .  A
N3            C7   1.361       .  A
N3           H34   1.042       .  S
N4           C11   1.354       .  A
N4           C12   1.351       .  A
C5           C13   1.389       .  A
C5           C21   1.411       .  A
C6           C22   1.400       .  A
C6           C14   1.385       .  A
C7           C15   1.388       .  A
C7           C24   1.436       .  A
C8           C23   1.433       .  A
C8           C16   1.386       .  A
C9           C21   1.416       .  A
C9           C17   1.380       .  A
C10          C24   1.422       .  A
C10          C18   1.391       .  A
C11          C19   1.380       .  A
C11          C22   1.408       .  A
C12          C20   1.392       .  A
C12          C23   1.422       .  A
C13          C14   1.377       .  A
C13          H25   1.082       .  S
C14          H26   1.082       .  S
C15          C16   1.386       .  A
C15          H27   1.081       .  S
C16          H28   1.082       .  S
C17          C18   1.374       .  A
C17          H29   1.079       .  S
C18          H30   1.083       .  S
C19          C20   1.370       .  A
C19          H31   1.082       .  S
C20          H32   1.081       .  S
C21         C886   1.496       .  S
C22         C873   1.479       .  S
C23         C838   1.507       .  S
C24         C854   1.517       .  S
N35          C40   1.358       .  A
N35          C39   1.354       .  A
N35          H67   1.036       .  S
N36          C43   1.351       .  A
N36          C44   1.356       .  A
N37          C42   1.351       .  A
N37          C41   1.358       .  A
N37          H68   1.041       .  S
N38          C45   1.357       .  A
N38          C46   1.351       .  A
C39          C47   1.388       .  A
C39          C55   1.423       .  A
C40          C56   1.425       .  A
C40          C48   1.386       .  A
C41          C49   1.384       .  A
C41          C58   1.415       .  A
C42          C57   1.419       .  A
C42          C50   1.390       .  A
C43          C55   1.423       .  A
C43          C51   1.392       .  A
C44          C58   1.413       .  A
C44          C52   1.382       .  A
C45          C53   1.385       .  A
C45          C56   1.421       .  A
C46          C54   1.388       .  A
C46          C57   1.418       .  A
C47          C48   1.382       .  A
C47          H59   1.082       .  S
C48          H60   1.082       .  S
C49          C50   1.379       .  A
C49          H61   1.083       .  S
C50          H62   1.082       .  S
C51          C52   1.364       .  A
C51          H63   1.080       .  S
C52          H64   1.082       .  S
C53          C54   1.374       .  A
C53          H65   1.082       .  S
C54          H66   1.082       .  S
C55         C774   1.489       .  S
C56         C790   1.510       .  S
C57         C825   1.487       .  S
C58         C809   1.508       .  S
O69          C77   1.259       .  A
O69         Co89   2.035       .  S
O70          C78   1.255       .  A
O70         Co90   2.013       .  S
O71          C79   1.259       .  A
O71         Co91   1.969   1_545  S
O72          C80   1.266       .  A
O72        Co992   1.976       .  S
O73          C79   1.274       .  A
O73         Co90   2.025       .  S
O74          C80   1.267       .  A
O74         Co89   1.993       .  S
O75          C78   1.240       .  A
O75         Co92   1.948       .  S
O76          C77   1.242       .  A
O76        Co991   1.948       .  S
C77         C889   1.496       .  S
C78         C710   1.486       .  S
C79         C870   1.482       .  S
C80         C729   1.488       .  S
O81          C94   1.272       .  A
O81         Co89   1.994       .  S
O82          C95   1.267       .  A
O82         Co90   1.983       .  S
O83          C96   1.309       .  A
O83        Co991   2.135       .  S
O84          C97   1.319       .  A
O84         Co92   2.160       .  S
O85          C97   1.274       .  A
O85         Co90   1.858       .  S
O86          C96   1.277       .  A
O86         Co89   1.866       .  S
O87          C94   1.264       .  A
O87        Co992   2.002       .  S
O88          C95   1.263       .  A
O88         Co91   1.996   1_545  S
Co89        O993   1.968       .  S
Co90         O93   1.968       .  S
Co91        O976   1.959       .  S
Co91        O983   2.135       .  S
Co91         O93   2.092   1_565  S
Co92        O972   1.971   1_545  S
Co92        O987   2.000   1_545  S
Co92         O93   2.095       .  S
O93        Co989   1.971   1_545  S
C94         C758   1.518       .  S
C95         C806   1.508       .  S
C96         C822   1.492       .  S
C97         C742   1.496       .  S
N98         C103   1.346       .  A
N98         C102   1.347       .  A
N98         H130   1.041       .  S
N99         C106   1.348       .  A
N99         C107   1.347       .  A
N100        C105   1.354       .  A
N100        C104   1.355       .  A
N100        H131   1.042       .  S
N101        C108   1.350       .  A
N101        C109   1.348       .  A
C102        C110   1.386       .  A
C102        C118   1.404       .  A
C103        C119   1.405       .  A
C103        C111   1.387       .  A
C104        C121   1.416       .  A
C104       C1912   1.385       .  A
C105        C120   1.420       .  A
C105       C1913   1.386       .  A
C106        C118   1.410       .  A
C106        C114   1.388       .  A
C107        C121   1.405       .  A
C107        C115   1.385       .  A
C108        C116   1.387       .  A
C108        C119   1.415       .  A
C109        C117   1.386       .  A
C109        C120   1.409       .  A
C110        C111   1.379       .  A
C110        H122   1.082       .  S
C111        H123   1.082       .  S
C112        C113   1.377       .  A
C112       C1904   1.385       .  A
C112        H124   1.083       .  S
C113       C1905   1.385       .  A
C113        H125   1.075       .  S
C114        C115   1.374       .  A
C114        H126   1.082       .  S
C115        H127   1.082       .  S
C116        C117   1.378       .  A
C116        H128   1.082       .  S
C117        H129   1.082       .  S
C118        C726   1.476       .  S
C119        C713   1.483       .  S
C120        C681   1.495       .  S
C121        C697   1.489       .  S
N132        C137   1.357       .  A
N132        C136   1.361       .  A
N132        H164   1.041       .  S
N133        C140   1.358       .  A
N133        C141   1.354       .  A
N134        C139   1.360       .  A
N134        C138   1.354       .  A
N134        H165   1.042       .  S
N135        C142   1.349       .  A
N135        C143   1.357       .  A
C136        C144   1.381       .  A
C136        C152   1.430       .  A
C137        C153   1.426       .  A
C137        C145   1.387       .  A
C138        C146   1.390       .  A
C138        C155   1.428       .  A
C139        C154   1.423       .  A
C139        C147   1.383       .  A
C140        C152   1.426       .  A
C140        C148   1.386       .  A
C141        C155   1.423       .  A
C141        C149   1.387       .  A
C142        C150   1.386       .  A
C142        C153   1.413       .  A
C143        C151   1.386       .  A
C143        C154   1.421       .  A
C144        C145   1.381       .  A
C144        H156   1.072       .  S
C145        H157   1.082       .  S
C146        C147   1.385       .  A
C146        H158   1.082       .  S
C147        H159   1.082       .  S
C148        C149   1.379       .  A
C148        H160   1.082       .  S
C149        H161   1.082       .  S
C150        C151   1.377       .  A
C150        H162   1.082       .  S
C151        H163   1.081       .  S
C152        C761   1.533       .  S
C153        C745   1.496       .  S
C154        C646   1.528       .  S
C155        C662   1.510       .  S
O166       C1974   1.254   1_455  A
O166       Co186   1.926       .  S
O167        C175   1.272       .  A
O167       Co187   2.024       .  S
O168        C176   1.236       .  A
O168       Co188   1.975       .  S
O169        C177   1.265       .  A
O169       Co189   1.986       .  S
O170       C1976   1.250   1_455  A
O170       Co187   2.018       .  S
O171        C177   1.272       .  A
O171       Co186   2.032       .  S
O172        C175   1.263       .  A
O172       Co189   1.970       .  S
O173        C174   1.282       .  A
O173       Co188   2.047       .  S
C174        C857   1.477       .  S
C174       O1966   1.256       .  A
C175        C598   1.500       .  S
C176        C582   1.493       .  S
C176       O1970   1.251       .  A
C177        C793   1.501       .  S
O178        C191   1.238       .  A
O178      Co1086   1.920   1_545  S
O179       C1992   1.280   1_455  A
O179      Co1087   2.043       .  S
O180        C193   1.255       .  A
O180      Co1088   1.960       .  S
O181        C194   1.276       .  A
O181      Co1089   2.025   1_545  S
O182        C194   1.259       .  A
O182      Co1087   1.949       .  S
O183       C1993   1.261       .  A
O183      Co1086   2.007   1_645  S
O184        C191   1.272       .  A
O184      Co1089   2.059   1_545  S
O185        C192   1.285       .  A
O185      Co1088   1.944       .  S
Co186      O1078   1.923       .  S
Co186      O1083   2.009       .  S
Co186       O190   2.028       .  S
Co187      O1079   1.984       .  S
Co187      O1082   1.990       .  S
Co187       O190   2.082       .  S
Co188      O1080   2.014       .  S
Co188      O1085   1.982       .  S
Co188      O1990   2.036       .  S
Co189      O1081   2.018       .  S
Co189      O1084   2.054       .  S
Co189       O190   2.065       .  S
O190      Co1988   2.036   1_455  S
C191        C777   1.480       .  S
C192        C614   1.485       .  S
C192       O1979   1.301       .  A
C193        C841   1.495       .  S
C193       O1983   1.281       .  A
C194        C630   1.492       .  S
O195       C2003   1.260       .  A
O195       Co215   1.878   1_556  S
O196        C204   1.271       .  A
O196       Co216   1.984       .  S
O197        C205   1.266       .  A
O197       Co217   1.993       .  S
O198       C2006   1.275       .  A
O198       Co218   2.063   1_655  S
O199        C205   1.269       .  A
O199       Co216   1.998   1_556  S
O200        C206   1.272       .  A
O200       Co215   2.001       .  S
O201        C204   1.274       .  A
O201       Co218   1.997       .  S
O202        C203   1.298   1_455  A
O202       Co217   2.111       .  S
C203       C2366   1.473       .  S
C203       O1995   1.268       .  A
C204        C454   1.503       .  S
C205        C550   1.513       .  S
C206        C473   1.527       .  S
C206       O1998   1.277       .  A
O207        C220   1.264       .  A
O207       Co215   2.031       .  S
O208        C221   1.272       .  A
O208       Co216   2.007   1_556  S
O209        C222   1.265   1_455  A
O209       Co217   1.918       .  S
O210        C223   1.254       .  A
O210       Co218   1.964       .  S
O211        C223   1.270       .  A
O211       Co216   2.029       .  S
O212       C2022   1.291       .  A
O212       Co215   2.092   1_556  S
O213       C2020   1.243   1_455  A
O213       Co218   1.952       .  S
O214        C221   1.276       .  A
O214       Co217   1.991       .  S
Co215      O2019   2.050       .  S
Co216       O219   2.072       .  S
Co217       O219   2.006   1_556  S
Co218       O219   2.011       .  S
O219      Co2015   2.045   1_455  S
C220        C505   1.472       .  S
C220       O2013   1.242       .  A
C221        C521   1.502       .  S
C222       C2334   1.493       .  S
C222       O2012   1.293       .  A
C223        C486   1.498       .  S
N224        C229   1.354       .  A
N224        C228   1.352       .  A
N224        H256   1.043       .  S
N225        C232   1.354       .  A
N225        C233   1.354       .  A
N226        C231   1.358       .  A
N226        C230   1.355       .  A
N226        H257   1.040       .  S
N227        C234   1.353       .  A
N227        C235   1.349       .  A
C228        C236   1.388       .  A
C228        C244   1.418       .  A
C229        C245   1.416       .  A
C229        C237   1.384       .  A
C230        C238   1.387       .  A
C230        C247   1.425       .  A
C231        C246   1.425       .  A
C231        C239   1.388       .  A
C232        C244   1.419       .  A
C232        C240   1.386       .  A
C233        C247   1.422       .  A
C233        C241   1.387       .  A
C234        C242   1.388       .  A
C234        C245   1.417       .  A
C235        C243   1.385       .  A
C235        C246   1.411       .  A
C236        C237   1.384       .  A
C236        H248   1.082       .  S
C237        H249   1.082       .  S
C238        C239   1.385       .  A
C238        H250   1.082       .  S
C239        H251   1.082       .  S
C240        C241   1.377       .  A
C240        H252   1.082       .  S
C241        H253   1.082       .  S
C242        C243   1.377       .  A
C242        H254   1.081       .  S
C243        H255   1.082       .  S
C244        C518   1.504       .  S
C245        C537   1.510       .  S
C246        C438   1.504       .  S
C247        C422   1.511       .  S
N258        C263   1.353       .  A
N258        C262   1.354       .  A
N258        H290   1.040       .  S
N259        C266   1.353       .  A
N259        C267   1.350       .  A
N260        C265   1.354       .  A
N260        C264   1.350       .  A
N260        H291   1.041       .  S
N261        C268   1.346       .  A
N261        C269   1.350       .  A
C262        C270   1.386       .  A
C262        C278   1.417       .  A
C263        C279   1.418       .  A
C263        C271   1.388       .  A
C264        C272   1.389       .  A
C264        C281   1.417       .  A
C265        C280   1.415       .  A
C265        C273   1.385       .  A
C266        C278   1.411       .  A
C266        C274   1.384       .  A
C267        C281   1.417       .  A
C267        C275   1.389       .  A
C268        C276   1.385       .  A
C268        C279   1.405       .  A
C269        C277   1.386       .  A
C269        C280   1.413       .  A
C270        C271   1.382       .  A
C270        H282   1.083       .  S
C271        H283   1.081       .  S
C272        C273   1.381       .  A
C272        H284   1.082       .  S
C273        H285   1.082       .  S
C274        C275   1.376       .  A
C274        H286   1.082       .  S
C275        H287   1.082       .  S
C276        C277   1.374       .  A
C276        H288   1.082       .  S
C277        H289   1.081       .  S
C278        C553   1.500       .  S
C279        C569   1.484       .  S
C280        C406   1.498       .  S
C281        C393   1.489       .  S
O292        C300   1.267       .  A
O292       Co312   1.986       .  S
O293        C301   1.268       .  A
O293       Co313   2.026       .  S
O294        C302   1.271       .  A
O294      Co1214   1.927       .  S
O295        C303   1.242       .  A
O295       Co315   1.936       .  S
O296        C302   1.299       .  A
O296       Co313   2.130       .  S
O297        C303   1.277       .  A
O297       Co312   2.075       .  S
O298        C301   1.247       .  A
O298      Co1215   1.930       .  S
O299        C300   1.282       .  A
O299       Co314   2.013       .  S
C300        C665   1.509       .  S
C301        C390   1.478       .  S
C302        C649   1.513       .  S
C303        C425   1.487       .  S
O304        C317   1.259       .  A
O304       Co312   1.958   1_655  S
O305        C318   1.264       .  A
O305       Co313   1.866       .  S
O306        C319   1.263       .  A
O306       Co314   2.000       .  S
O307        C320   1.275   1_455  A
O307      Co1215   2.025       .  S
O308        C320   1.263       .  A
O308       Co313   1.977   1_655  S
O309        C319   1.267       .  A
O309       Co312   1.992       .  S
O310        C317   1.278   1_455  A
O310       Co315   2.055       .  S
O311        C318   1.305       .  A
O311      Co1214   2.141       .  S
Co312       O316   2.064       .  S
Co313      O1216   2.021       .  S
Co314      O1194   1.920       .  S
Co314      O1211   2.136       .  S
Co314       O316   2.027       .  S
Co315      O1198   1.944       .  S
Co315      O1207   2.022       .  S
Co315       O316   2.031       .  S
O316      Co1213   2.022       .  S
C317       C2241   1.501       .  S
C318        C678   1.471       .  S
C319        C694   1.507       .  S
C320       C2209   1.492       .  S
N321        C326   1.352       .  A
N321        C325   1.355       .  A
N321        H353   1.044       .  S
N322        C329   1.361       .  A
N322        C330   1.352       .  A
N323        C328   1.366       .  A
N323        C327   1.353       .  A
N323        H354   1.036       .  S
N324        C331   1.343       .  A
N324        C332   1.350       .  A
C325        C333   1.383       .  A
C325        C341   1.412       .  A
C326        C342   1.414       .  A
C326        C334   1.389       .  A
C327        C335   1.389       .  A
C327        C344   1.428       .  A
C328        C343   1.436       .  A
C328        C336   1.386       .  A
C329        C341   1.429       .  A
C329        C337   1.389       .  A
C330        C344   1.421       .  A
C330        C338   1.385       .  A
C331        C339   1.386       .  A
C331        C342   1.405       .  A
C332        C340   1.386       .  A
C332        C343   1.415       .  A
C333        C334   1.377       .  A
C333        H345   1.082       .  S
C334        H346   1.082       .  S
C335        C336   1.380       .  A
C335        H347   1.081       .  S
C336        H348   1.082       .  S
C337        C338   1.370       .  A
C337        H349   1.080       .  S
C338        H350   1.083       .  S
C339        C340   1.376       .  A
C339        H351   1.082       .  S
C340        H352   1.082       .  S
C341        C633   1.544       .  S
C342        C617   1.476       .  S
C343        C470   1.521       .  S
C344        C457   1.493       .  S
N355        C360   1.357       .  A
N355        C359   1.352       .  A
N355        H387   1.043       .  S
N356        C363   1.346       .  A
N356        C364   1.354       .  A
N357        C362   1.347       .  A
N357        C361   1.350       .  A
N357        H388   1.040       .  S
N358        C365   1.356       .  A
N358        C366   1.351       .  A
C359        C367   1.389       .  A
C359        C375   1.420       .  A
C360        C376   1.422       .  A
C360        C368   1.386       .  A
C361        C369   1.382       .  A
C361        C378   1.404       .  A
C362        C377   1.413       .  A
C362        C370   1.393       .  A
C363        C375   1.414       .  A
C363        C371   1.389       .  A
C364        C378   1.412       .  A
C364        C372   1.384       .  A
C365        C373   1.383       .  A
C365        C376   1.418       .  A
C366        C374   1.388       .  A
C366        C377   1.422       .  A
C367        C368   1.384       .  A
C367        H379   1.082       .  S
C368        H380   1.082       .  S
C369        C370   1.372       .  A
C369        H381   1.083       .  S
C370        H382   1.079       .  S
C371        C372   1.377       .  A
C371        H383   1.082       .  S
C372        H384   1.082       .  S
C373        C374   1.367       .  A
C373        H385   1.082       .  S
C374        H386   1.076       .  S
C375        C601   1.484       .  S
C376        C585   1.522       .  S
C377        C502   1.482       .  S
C378        C489   1.494       .  S
C389        C390   1.403       .  A
C389        C394   1.411       .  A
C389        H396   1.084       .  S
C390        C391   1.424       .  A
C391        C392   1.392       .  A
C391        C398   1.520       .  S
C392        C393   1.396       .  A
C392        H397   1.085       .  S
C393        C394   1.421       .  A
C394        C395   1.514       .  S
C395        F399   1.384       .  S
C395        F400   1.383       .  S
C395        F401   1.383       .  S
C398        F402   1.384       .  S
C398        F403   1.378       .  S
C398        F404   1.383       .  S
C405        C406   1.403       .  A
C405        C410   1.409       .  A
C405        H412   1.085       .  S
C406        C407   1.419       .  A
C407        C408   1.406       .  A
C407        C414   1.519       .  S
C408        C409   1.406       .  A
C408       H2213   1.085       .  S
C409        C410   1.427       .  A
C409       C2120   1.489       .  S
C410        C411   1.519       .  S
C411        F415   1.384       .  S
C411        F416   1.373       .  S
C411        F417   1.383       .  S
H413       C2208   1.085   1_455  S
C414        F418   1.383       .  S
C414        F419   1.382       .  S
C414       F2220   1.384       .  S
F420       C2214   1.384       .  S
C421        C422   1.405       .  A
C421        C426   1.408       .  A
C421        H428   1.083       .  S
C422        C423   1.425       .  A
C423        C424   1.414       .  A
C423        C430   1.516       .  S
C424        C425   1.403       .  A
C424        H429   1.083       .  S
C425        C426   1.422       .  A
C426        C427   1.518       .  S
C427        F432   1.383       .  S
C427       F1331   1.385       .  S
C427       F1333   1.382       .  S
C430        F434   1.381       .  S
C430        F435   1.383       .  S
C430        F436   1.384       .  S
F431       C1327   1.384       .  S
F433       C1327   1.382       .  S
C437        C438   1.400       .  A
C437        C442   1.413       .  A
C437        H444   1.083       .  S
C438        C439   1.421       .  A
C439        C440   1.414       .  A
C439        C446   1.521       .  S
C440        C441   1.407       .  A
C440        H445   1.083       .  S
C441        C442   1.429       .  A
C441       C2117   1.505       .  S
C442        C443   1.521       .  S
C443        F447   1.385       .  S
C443        F448   1.383       .  S
C443        F449   1.383       .  S
C446        F450   1.381       .  S
C446        F451   1.383       .  S
C446        F452   1.384       .  S
C453        C454   1.412       .  A
C453        C458   1.398       .  A
C453        H460   1.082       .  S
C454        C455   1.423       .  A
C455        C456   1.416       .  A
C455        C462   1.514       .  S
C456        C457   1.405       .  A
C456        H461   1.083       .  S
C457        C458   1.416       .  A
C458        C459   1.527       .  S
C459        F463   1.385       .  S
C459        F464   1.382       .  S
C459        F465   1.382       .  S
C462        F466   1.378       .  S
C462        F467   1.383       .  S
C462        F468   1.385       .  S
C469        C470   1.394       .  A
C469        C474   1.407       .  A
C469        H476   1.085       .  S
C470        C471   1.430       .  A
C471        C472   1.425       .  A
C471        C478   1.517       .  S
C472        C473   1.409       .  A
C472        H477   1.084       .  S
C473        C474   1.438       .  A
C474        C475   1.507       .  S
C475        F479   1.386       .  S
C475        F480   1.358       .  S
C475        F481   1.380       .  S
C478        F482   1.382       .  S
C478        F483   1.382       .  S
C478        F484   1.383       .  S
C485        C486   1.408       .  A
C485        C490   1.408       .  A
C485        H492   1.083       .  S
C486        C487   1.427       .  A
C487        C488   1.411       .  A
C487        C494   1.520       .  S
C488        C489   1.400       .  A
C488        H493   1.083       .  S
C489        C490   1.417       .  A
C490        C491   1.522       .  S
C491        F495   1.384       .  S
C491        F496   1.383       .  S
C491        F497   1.381       .  S
C494        F498   1.383       .  S
C494        F499   1.384       .  S
C494        F500   1.385       .  S
C501        C502   1.396       .  A
C501        C506   1.386       .  A
C501        H508   1.085       .  S
C502        C503   1.424       .  A
C503        C504   1.408       .  A
C503        C510   1.516       .  S
C504        C505   1.399       .  A
C504        H509   1.084       .  S
C505        C506   1.418       .  A
C506       C2307   1.517       .  S
C507       C2306   1.517       .  S
C507        F511   1.384       .  S
C507        F512   1.377   1_655  S
C507       F2313   1.382       .  S
C510        F514   1.382       .  S
C510        F515   1.383       .  S
C510        F516   1.383       .  S
F513       C2307   1.381       .  S
C517        C518   1.401       .  A
C517        C522   1.405       .  A
C517        H524   1.083       .  S
C518        C519   1.421       .  A
C519        C520   1.411       .  A
C519        C526   1.516       .  S
C520        C521   1.409       .  A
C520        H525   1.084       .  S
C521        C522   1.431       .  A
C522        C523   1.524       .  S
C523        F527   1.384       .  S
C523        F528   1.383   1_556  S
C523        F529   1.385       .  S
C526        F530   1.383       .  S
C526        F531   1.382       .  S
C526        F532   1.384       .  S
C533        C534   1.403       .  A
C533        C538   1.406       .  A
C533        H540   1.073       .  S
C534        C535   1.412       .  A
C534       C2022   1.495       .  S
C535        C536   1.417       .  A
C535       C2342   1.515       .  S
C536        C537   1.414       .  A
C536        H541   1.083       .  S
C537        C538   1.424       .  A
C538        C539   1.526       .  S
C539        F543   1.385       .  S
C539        F544   1.382       .  S
C539        F545   1.379       .  S
C542       C2335   1.515   1_455  S
C542        F546   1.382       .  S
C542        F547   1.383       .  S
C542        F548   1.385       .  S
C549        C550   1.414       .  A
C549        C554   1.408       .  A
C549        H556   1.081       .  S
C550        C551   1.426       .  A
C551        C552   1.417       .  A
C551        C558   1.514       .  S
C552        C553   1.404       .  A
C552        H557   1.083       .  S
C553        C554   1.415       .  A
C554        C555   1.523       .  S
C555        F559   1.384       .  S
C555        F560   1.380       .  S
C555        F561   1.383       .  S
C558        F562   1.385       .  S
C558        F563   1.384       .  S
C558        F564   1.381       .  S
C565        C566   1.401       .  A
C565        C570   1.405       .  A
C565        H572   1.083       .  S
C566        C567   1.413       .  A
C566       C2003   1.469       .  S
C567        C568   1.405       .  A
C567        C574   1.515       .  S
C568        C569   1.401       .  A
C568        H573   1.083       .  S
C569        C570   1.418       .  A
C570        C571   1.520       .  S
C571        F575   1.385       .  S
C571        F576   1.382       .  S
C571        F577   1.382       .  S
C574        F578   1.380       .  S
C574        F579   1.384       .  S
C574        F580   1.385       .  S
C581        C582   1.408       .  A
C581        C586   1.415       .  A
C581        H588   1.083       .  S
C582        C583   1.410       .  A
C583        C584   1.402       .  A
C583       C2390   1.516       .  S
C584        C585   1.414       .  A
C584        H589   1.082       .  S
C585        C586   1.428       .  A
C586        C587   1.518       .  S
C587        F591   1.384       .  S
C587        F592   1.381       .  S
C587        F593   1.383       .  S
C590       C2383   1.518   1_455  S
C590        F594   1.384       .  S
C590        F595   1.378       .  S
C590        F596   1.385       .  S
C597        C598   1.414       .  A
C597        C602   1.404       .  A
C597        H604   1.082       .  S
C598        C599   1.425       .  A
C599        C600   1.409       .  A
C599        C606   1.514       .  S
C600        C601   1.398       .  A
C600        H605   1.083       .  S
C601        C602   1.410       .  A
C602        C603   1.520       .  S
C603        F607   1.382       .  S
C603        F608   1.383       .  S
C603        F609   1.385       .  S
C606        F610   1.384       .  S
C606        F612   1.380       .  S
C606       F1511   1.376       .  S
F611       C1506   1.378       .  S
C613        C614   1.408       .  A
C613        C618   1.405       .  A
C613        H620   1.083       .  S
C614        C615   1.416       .  A
C615        C616   1.401       .  A
C615       C2422   1.501   1_545  S
C616        C617   1.396       .  A
C616        H621   1.084       .  S
C617        C618   1.410       .  A
C618        C619   1.517       .  S
C619        F623   1.384       .  S
C619        F624   1.383       .  S
C619        F625   1.382       .  S
C622       C2415   1.510       .  S
C622        F626   1.371   1_545  S
C622        F627   1.382   1_655  S
C622        F628   1.388       .  S
C629        C630   1.402       .  A
C629        C634   1.406       .  A
C629        H636   1.085       .  S
C630        C631   1.423       .  A
C631        C632   1.415       .  A
C631        C638   1.519       .  S
C632        C633   1.413       .  A
C632        H637   1.078       .  S
C633        C634   1.430       .  A
C634        C635   1.517       .  S
C635        F639   1.385       .  S
C635        F640   1.380       .  S
C635        F641   1.383       .  S
C638        F642   1.385       .  S
C638        F643   1.382       .  S
C638        F644   1.384       .  S
C645        C646   1.416       .  A
C645        C650   1.425       .  A
C645        H652   1.083       .  S
C646        C647   1.426       .  A
C647        C648   1.416       .  A
C647        C654   1.520       .  S
C648        C649   1.406       .  A
C648        H653   1.082       .  S
C649        C650   1.419       .  A
C650        C651   1.516       .  S
C651        F655   1.384       .  S
C651        F656   1.382       .  S
C651        F657   1.383       .  S
C654        F658   1.383       .  S
C654        F659   1.379       .  S
C654        F660   1.381       .  S
C661        C662   1.398       .  A
C661        C666   1.402       .  A
C661        H668   1.084       .  S
C662        C663   1.425       .  A
C663        C664   1.418       .  A
C663        C670   1.517       .  S
C664        C665   1.410       .  A
C664        H669   1.084       .  S
C665        C666   1.434       .  A
C666        C667   1.524       .  S
C667        F671   1.384       .  S
C667        F672   1.382       .  S
C667        F673   1.386       .  S
C670        F674   1.383       .  S
C670        F675   1.382       .  S
C670        F676   1.384       .  S
C677        C678   1.401       .  A
C677        C682   1.404       .  A
C677        H684   1.083       .  S
C678       C2479   1.416   1_455  A
C679        C680   1.410       .  A
C679       C2478   1.418       .  A
C679        C686   1.520       .  S
C680        C681   1.404       .  A
C680        H685   1.083       .  S
C681       C2482   1.420       .  A
C682       C2481   1.415       .  A
C682        C683   1.520       .  S
C683        F687   1.384       .  S
C683        F688   1.382       .  S
C683        F689   1.381       .  S
C686        F690   1.382       .  S
C686        F691   1.383       .  S
C686        F692   1.384       .  S
C693        C698   1.411       .  A
C693       C2494   1.413       .  A
C693        H700   1.082       .  S
C694        C695   1.430       .  A
C694       C2493   1.412   1_455  A
C695        C696   1.411       .  A
C695        C702   1.523       .  S
C696       C2497   1.402       .  A
C696        H701   1.083       .  S
C697        C698   1.411       .  A
C697       C2496   1.398       .  A
C698        C699   1.518       .  S
C699        F703   1.382       .  S
C699        F704   1.383       .  S
C699        F705   1.384       .  S
C702        F706   1.383       .  S
C702        F707   1.384       .  S
C702        F708   1.385       .  S
C709        C710   1.409       .  A
C709        C714   1.398       .  A
C709        H716   1.082       .  S
C710        C711   1.421       .  A
C711        C712   1.409       .  A
C711        C718   1.518       .  S
C712        C713   1.403       .  A
C712        H717   1.083       .  S
C713        C714   1.417       .  A
C714        C715   1.527       .  S
C715        F719   1.385       .  S
C715        F720   1.380       .  S
C715        F721   1.382       .  S
C718        F722   1.382       .  S
C718        F723   1.382       .  S
C718        F724   1.385       .  S
C725        C726   1.397       .  A
C725        C730   1.401       .  A
C725        H732   1.084       .  S
C726        C727   1.408       .  A
C727        C728   1.403       .  A
C727        C734   1.518       .  S
C728        C729   1.412       .  A
C728        H733   1.082       .  S
C729        C730   1.424       .  A
C730        C731   1.518       .  S
C731        F735   1.385       .  S
C731        F736   1.381       .  S
C731        F737   1.381       .  S
C734        F738   1.384       .  S
C734        F739   1.383       .  S
C734        F740   1.381       .  S
C741        C742   1.406       .  A
C741        C746   1.411       .  A
C741        H748   1.083       .  S
C742        C743   1.427       .  A
C743        C744   1.408       .  A
C743        C750   1.519       .  S
C744        C745   1.398       .  A
C744        H749   1.083       .  S
C745        C746   1.418       .  A
C746        C747   1.517       .  S
C747        F751   1.384       .  S
C747        F752   1.382       .  S
C747        F753   1.383       .  S
C750        F754   1.383       .  S
C750        F755   1.383       .  S
C750        F756   1.385       .  S
C757        C758   1.410       .  A
C757        C762   1.424       .  A
C757        H764   1.084       .  S
C758        C759   1.428       .  A
C759        C760   1.413       .  A
C759        C766   1.520       .  S
C760        C761   1.408       .  A
C760        H765   1.083       .  S
C761        C762   1.432       .  A
C762        C763   1.517       .  S
C763        F767   1.384       .  S
C763        F768   1.380       .  S
C763        F769   1.384       .  S
C766        F770   1.384       .  S
C766        F771   1.383       .  S
C766        F772   1.385       .  S
C773        C774   1.394       .  A
C773        C778   1.391       .  A
C773        H780   1.086       .  S
C774        C775   1.424       .  A
C775        C776   1.417       .  A
C775        C782   1.516       .  S
C776        C777   1.405       .  A
C776        H781   1.084       .  S
C777        C778   1.424       .  A
C778        C779   1.521       .  S
C779        F783   1.385       .  S
C779        F784   1.381       .  S
C779        F785   1.382       .  S
C782        F786   1.384       .  S
C782        F787   1.382       .  S
C782        F788   1.382       .  S
C789        C790   1.404       .  A
C789        C794   1.415       .  A
C789        H796   1.083       .  S
C790        C791   1.420       .  A
C791        C792   1.419       .  A
C791        C798   1.518       .  S
C792        C793   1.409       .  A
C792        H797   1.083       .  S
C793        C794   1.420       .  A
C794        C795   1.517       .  S
C795        F799   1.384       .  S
C795        F800   1.384       .  S
C795        F801   1.382       .  S
C798        F802   1.383       .  S
C798        F803   1.383       .  S
C798        F804   1.384       .  S
C805        C806   1.410       .  A
C805        C810   1.421       .  A
C805        H812   1.080       .  S
C806        C807   1.426       .  A
C807        C808   1.401       .  A
C807        C814   1.517       .  S
C808        C809   1.400       .  A
C808        H813   1.084       .  S
C809        C810   1.420       .  A
C810        C811   1.515       .  S
C811        F815   1.384       .  S
C811        F816   1.384       .  S
C811        F817   1.381       .  S
C814        F818   1.385       .  S
C814        F819   1.383       .  S
C814        F820   1.381       .  S
C821        C822   1.411       .  A
C821        C826   1.406       .  A
C821        H828   1.083       .  S
C822        C823   1.425       .  A
C823        C824   1.406       .  A
C823        C830   1.518       .  S
C824        C825   1.399       .  A
C824        H829   1.083       .  S
C825        C826   1.412       .  A
C826        C827   1.519       .  S
C827        F831   1.385       .  S
C827        F832   1.381       .  S
C827        F833   1.383       .  S
C830        F834   1.378       .  S
C830        F835   1.378       .  S
C830        F836   1.383       .  S
C837        C838   1.405       .  A
C837        C842   1.416       .  A
C837        H844   1.084       .  S
C838        C839   1.423       .  A
C839        C840   1.409       .  A
C839        C846   1.518       .  S
C840        C841   1.403       .  A
C840        H845   1.085       .  S
C841        C842   1.424       .  A
C842        C843   1.515       .  S
C843        F847   1.382       .  S
C843        F848   1.376       .  S
C843        F849   1.375       .  S
C846        F850   1.383       .  S
C846        F851   1.383       .  S
C846        F852   1.382       .  S
C853        C854   1.410       .  A
C853        C858   1.395       .  A
C853        H860   1.084       .  S
C854        C855   1.428       .  A
C855        C856   1.419       .  A
C855        C862   1.515       .  S
C856        C857   1.405       .  A
C856        H861   1.083       .  S
C857        C858   1.412       .  A
C858        C859   1.518       .  S
C859        F863   1.384       .  S
C859        F864   1.384       .  S
C859       F2665   1.383       .  S
C862        F866   1.381       .  S
C862        F867   1.383       .  S
C862        F868   1.384       .  S
F865       C2659   1.383   1_455  S
C869        C870   1.402       .  A
C869        C874   1.403       .  A
C869        H876   1.083       .  S
C870        C871   1.426       .  A
C871        C872   1.405       .  A
C871        C878   1.517       .  S
C872        C873   1.395       .  A
C872        H877   1.083       .  S
C873        C874   1.418       .  A
C874        C875   1.521       .  S
C875        F879   1.382       .  S
C875        F880   1.379       .  S
C875        F881   1.384       .  S
C878        F882   1.381       .  S
C878        F883   1.378       .  S
C878        F884   1.385       .  S
C885        C886   1.404       .  A
C885        C890   1.410       .  A
C885        H892   1.084       .  S
C886        C887   1.420       .  A
C887        C888   1.402       .  A
C887        C894   1.520       .  S
C888        C889   1.408       .  A
C888        H893   1.082       .  S
C889        C890   1.423       .  A
C890        C891   1.515       .  S
C891        F895   1.385       .  S
C891        F896   1.383       .  S
C891        F897   1.383       .  S
C894        F898   1.383       .  S
C894        F899   1.377       .  S
C894        F900   1.384       .  S
N901        C906   1.344       .  A
N901        C905   1.351       .  A
N901        H933   1.041       .  S
N902        C909   1.356       .  A
N902        C910   1.352       .  A
N903        C908   1.364       .  A
N903        C907   1.361       .  A
N903        H934   1.040       .  S
N904        C911   1.354       .  A
N904        C912   1.352       .  A
C905        C913   1.387       .  A
C905        C921   1.409       .  A
C906        C922   1.404       .  A
C906        C914   1.386       .  A
C907        C915   1.387       .  A
C907        C924   1.435       .  A
C908        C923   1.437       .  A
C908        C916   1.388       .  A
C909        C921   1.417       .  A
C909        C917   1.381       .  A
C910        C924   1.424       .  A
C910        C918   1.390       .  A
C911        C919   1.381       .  A
C911        C922   1.411       .  A
C912        C920   1.391       .  A
C912        C923   1.423       .  A
C913        C914   1.379       .  A
C913        H925   1.082       .  S
C914        H926   1.082       .  S
C915        C916   1.386       .  A
C915        H927   1.082       .  S
C916        H928   1.082       .  S
C917        C918   1.375       .  A
C917        H929   1.080       .  S
C918        H930   1.082       .  S
C919        C920   1.373       .  A
C919        H931   1.082       .  S
C920        H932   1.079       .  S
C921       C1786   1.499       .  S
C922       C1773   1.486       .  S
C923       C1738   1.513       .  S
C924       C1754   1.520       .  S
N935        C940   1.359       .  A
N935        C939   1.355       .  A
N935        H967   1.026       .  S
N936        C943   1.351       .  A
N936        C944   1.355       .  A
N937        C942   1.353       .  A
N937        C941   1.357       .  A
N937        H968   1.041       .  S
N938        C945   1.355       .  A
N938        C946   1.350       .  A
C939        C947   1.388       .  A
C939        C955   1.427       .  A
C940        C956   1.430       .  A
C940        C948   1.387       .  A
C941        C949   1.385       .  A
C941        C958   1.415       .  A
C942        C957   1.420       .  A
C942        C950   1.389       .  A
C943        C955   1.426       .  A
C943        C951   1.392       .  A
C944        C958   1.416       .  A
C944        C952   1.384       .  A
C945        C953   1.387       .  A
C945        C956   1.425       .  A
C946        C954   1.386       .  A
C946        C957   1.418       .  A
C947        C948   1.382       .  A
C947        H959   1.082       .  S
C948        H960   1.082       .  S
C949        C950   1.377       .  A
C949        H961   1.083       .  S
C950        H962   1.082       .  S
C951        C952   1.363       .  A
C951        H963   1.080       .  S
C952        H964   1.082       .  S
C953        C954   1.376       .  A
C953        H965   1.082       .  S
C954        H966   1.082       .  S
C955       C1674   1.493       .  S
C956       C1690   1.511       .  S
C957       C1725   1.489       .  S
C958       C1709   1.507       .  S
O969        C977   1.258       .  A
O969       Co989   2.035       .  S
O970        C978   1.257       .  A
O970       Co990   2.016       .  S
O971        C979   1.260       .  A
O971       Co991   1.971       .  S
O972        C980   1.264       .  A
O973        C979   1.275       .  A
O973       Co990   2.026       .  S
O974        C980   1.268       .  A
O974       Co989   1.994       .  S
O975        C978   1.245       .  A
O975       Co992   1.954       .  S
O976        C977   1.243       .  A
C977       C1789   1.499       .  S
C978       C1610   1.489       .  S
C979       C1770   1.486       .  S
C980       C1629   1.485       .  S
O981        C994   1.273       .  A
O981       Co989   1.999       .  S
O982        C995   1.267       .  A
O982       Co990   1.984       .  S
O983        C996   1.310       .  A
O984        C997   1.316       .  A
O984       Co992   2.147       .  S
O985        C997   1.273       .  A
O985       Co990   1.859       .  S
O986        C996   1.279       .  A
O986       Co989   1.867       .  S
O987        C994   1.264       .  A
O988        C995   1.262       .  A
O988       Co991   1.981       .  S
Co990       O993   1.966       .  S
Co991       O993   2.090       .  S
Co992       O993   2.097       .  S
C994       C1658   1.519       .  S
C995       C1706   1.499       .  S
C996       C1722   1.494       .  S
C997       C1642   1.493       .  S
N998       C1003   1.349       .  A
N998       C1002   1.344       .  A
N998       H1030   1.040       .  S
N999       C1006   1.347       .  A
N999       C1007   1.348       .  A
N1000      C1005   1.352       .  A
N1000      C1004   1.359       .  A
N1000      H1031   1.039       .  S
N1001      C1008   1.353       .  A
N1001      C1009   1.346       .  A
C1002      C1010   1.386       .  A
C1002      C1018   1.403       .  A
C1003      C1019   1.406       .  A
C1003      C1011   1.386       .  A
C1004      C2812   1.383       .  A
C1004      C1021   1.418       .  A
C1005      C1020   1.423       .  A
C1005      C2813   1.387       .  A
C1006      C1018   1.409       .  A
C1006      C1014   1.388       .  A
C1007      C1021   1.405       .  A
C1007      C1015   1.384       .  A
C1008      C1016   1.385       .  A
C1008      C1019   1.415       .  A
C1009      C1017   1.387       .  A
C1009      C1020   1.411       .  A
C1010      C1011   1.378       .  A
C1010      H1022   1.082       .  S
C1011      H1023   1.082       .  S
C1012      C2804   1.385   1_455  A
C1012      C1013   1.381       .  A
C1012      H1024   1.082       .  S
C1013      C2805   1.386   1_455  A
C1013      H1025   1.078       .  S
C1014      C1015   1.373       .  A
C1014      H1026   1.082       .  S
C1015      H1027   1.083       .  S
C1016      C1017   1.379       .  A
C1016      H1028   1.082       .  S
C1017      H1029   1.082       .  S
C1018      C1626   1.472       .  S
C1019      C1613   1.491       .  S
C1020      C1581   1.487       .  S
C1021      C1597   1.498       .  S
N1032      C1037   1.356       .  A
N1032      C1036   1.360       .  A
N1032      H1064   1.041       .  S
N1033      C1040   1.359       .  A
N1033      C1041   1.355       .  A
N1034      C1039   1.360       .  A
N1034      C1038   1.354       .  A
N1034      H1065   1.042       .  S
N1035      C1042   1.349       .  A
N1035      C1043   1.356       .  A
C1036      C1044   1.384       .  A
C1036      C1052   1.426       .  A
C1037      C1053   1.421       .  A
C1037      C1045   1.387       .  A
C1038      C1046   1.390       .  A
C1038      C1055   1.427       .  A
C1039      C1054   1.423       .  A
C1039      C1047   1.383       .  A
C1040      C1052   1.425       .  A
C1040      C1048   1.385       .  A
C1041      C1055   1.425       .  A
C1041      C1049   1.388       .  A
C1042      C1050   1.386       .  A
C1042      C1053   1.412       .  A
C1043      C1051   1.387       .  A
C1043      C1054   1.421       .  A
C1044      C1045   1.380       .  A
C1044      H1056   1.076       .  S
C1045      H1057   1.082       .  S
C1046      C1047   1.385       .  A
C1046      H1058   1.082       .  S
C1047      H1059   1.082       .  S
C1048      C1049   1.380       .  A
C1048      H1060   1.082       .  S
C1049      H1061   1.081       .  S
C1050      C1051   1.376       .  A
C1050      H1062   1.082       .  S
C1051      H1063   1.081       .  S
C1052      C1661   1.529       .  S
C1053      C1645   1.492       .  S
C1054      C1546   1.525       .  S
C1055      C1562   1.511       .  S
O1066      C2874   1.253   1_455  A
O1066     Co1086   1.927       .  S
O1067      C1075   1.256       .  A
O1067     Co1087   1.977   1_565  S
O1068      C1076   1.246       .  A
O1068     Co1088   2.029   1_565  S
O1069      C1077   1.258       .  A
O1069     Co1089   1.972       .  S
O1070      C2876   1.270   1_455  A
O1070     Co1087   2.015   1_565  S
O1071      C1077   1.277       .  A
O1071     Co1086   2.054       .  S
O1072      C1075   1.266       .  A
O1072     Co1089   1.988       .  S
O1073      C1074   1.274       .  A
O1073     Co1088   2.080   1_565  S
C1074      C1757   1.489       .  S
C1074      O2866   1.240       .  A
C1075      C1498   1.489       .  S
C1076      C1482   1.498       .  S
C1076      O2870   1.239       .  A
C1077      C1693   1.511       .  S
O1078      C1091   1.240       .  A
O1079      C2892   1.293   1_455  A
O1080      C1093   1.258       .  A
O1081      C1094   1.275       .  A
O1082      C1094   1.270       .  A
O1083      C2893   1.259   1_455  A
O1084      C1091   1.271       .  A
O1085      C1092   1.293       .  A
Co1086     O1090   2.019       .  S
Co1087     O1090   2.074   1_545  S
Co1088     O2890   2.104   1_545  S
Co1089     O1090   2.102       .  S
O1090     Co2888   1.999   1_455  S
C1091      C1677   1.479       .  S
C1092      C1514   1.468       .  S
C1092      O2879   1.290       .  A
C1093      C1741   1.503       .  S
C1093      O2883   1.260       .  A
C1094      C1530   1.504       .  S
O1095      C2903   1.264       .  A
O1095     Co1115   1.879   1_556  S
O1096      C1104   1.270       .  A
O1096     Co1116   1.988       .  S
O1097      C1105   1.265       .  A
O1097     Co1117   1.988       .  S
O1098      C2906   1.276       .  A
O1098     Co1118   2.060   1_655  S
O1099      C1105   1.266       .  A
O1099     Co1116   1.990   1_556  S
O1100      C1106   1.272       .  A
O1100     Co1115   2.001       .  S
O1101      C1104   1.273       .  A
O1101     Co1118   1.996       .  S
O1102      C1103   1.296       .  A
O1102     Co1117   2.105   1_655  S
C1103      C3266   1.477       .  S
C1103      O2895   1.268       .  A
C1104      C1354   1.503       .  S
C1105      C1450   1.505       .  S
C1106      C1373   1.527       .  S
C1106      O2898   1.277       .  A
O1107      C1120   1.265       .  A
O1107     Co1115   2.028       .  S
O1108      C1121   1.274       .  A
O1108     Co1116   2.018   1_556  S
O1109      C1122   1.266   1_455  A
O1109     Co1117   1.918       .  S
O1110      C1123   1.255       .  A
O1110     Co1118   1.964       .  S
O1111      C1123   1.270       .  A
O1111     Co1116   2.027       .  S
O1112      C2922   1.289       .  A
O1112     Co1115   2.092   1_556  S
O1113      C2920   1.244   1_455  A
O1113     Co1118   1.953       .  S
O1114      C1121   1.277       .  A
O1114     Co1117   1.997       .  S
Co1115     O2919   2.049       .  S
Co1116     O1119   2.069       .  S
Co1117     O1119   2.010   1_556  S
Co1118     O1119   2.007       .  S
O1119     Co2915   2.048   1_455  S
C1120      C1405   1.472       .  S
C1120      O2913   1.243       .  A
C1121      C1421   1.509       .  S
C1122      C3234   1.482       .  S
C1122      O2912   1.289       .  A
C1123      C1386   1.495       .  S
N1124      C1129   1.355       .  A
N1124      C1128   1.353       .  A
N1124      H1156   1.042       .  S
N1125      C1132   1.357       .  A
N1125      C1133   1.356       .  A
N1126      C1131   1.361       .  A
N1126      C1130   1.359       .  A
N1126      H1157   1.040       .  S
N1127      C1134   1.354       .  A
N1127      C1135   1.351       .  A
C1128      C1136   1.389       .  A
C1128      C1144   1.420       .  A
C1129      C1145   1.415       .  A
C1129      C1137   1.385       .  A
C1130      C1138   1.388       .  A
C1130      C1147   1.432       .  A
C1131      C1146   1.428       .  A
C1131      C1139   1.387       .  A
C1132      C1144   1.423       .  A
C1132      C1140   1.385       .  A
C1133      C1147   1.426       .  A
C1133      C1141   1.388       .  A
C1134      C1142   1.386       .  A
C1134      C1145   1.417       .  A
C1135      C1143   1.387       .  A
C1135      C1146   1.416       .  A
C1136      C1137   1.382       .  A
C1136      H1148   1.082       .  S
C1137      H1149   1.082       .  S
C1138      C1139   1.386       .  A
C1138      H1150   1.082       .  S
C1139      H1151   1.082       .  S
C1140      C1141   1.377       .  A
C1140      H1152   1.081       .  S
C1141      H1153   1.082       .  S
C1142      C1143   1.375       .  A
C1142      H1154   1.082       .  S
C1143      H1155   1.082       .  S
C1144      C1418   1.511       .  S
C1145      C1437   1.507       .  S
C1146      C1338   1.507       .  S
C1147      C1322   1.520       .  S
N1158      C1163   1.353       .  A
N1158      C1162   1.352       .  A
N1158      H1190   1.041       .  S
N1159      C1166   1.351       .  A
N1159      C1167   1.350       .  A
N1160      C1165   1.354       .  A
N1160      C1164   1.352       .  A
N1160      H1191   1.041       .  S
N1161      C1168   1.347       .  A
N1161      C1169   1.349       .  A
C1162      C1170   1.386       .  A
C1162      C1178   1.415       .  A
C1163      C1179   1.418       .  A
C1163      C1171   1.388       .  A
C1164      C1172   1.388       .  A
C1164      C1181   1.420       .  A
C1165      C1180   1.418       .  A
C1165      C1173   1.386       .  A
C1166      C1178   1.409       .  A
C1166      C1174   1.384       .  A
C1167      C1181   1.416       .  A
C1167      C1175   1.388       .  A
C1168      C1176   1.383       .  A
C1168      C1179   1.404       .  A
C1169      C1177   1.387       .  A
C1169      C1180   1.414       .  A
C1170      C1171   1.381       .  A
C1170      H1182   1.082       .  S
C1171      H1183   1.080       .  S
C1172      C1173   1.382       .  A
C1172      H1184   1.082       .  S
C1173      H1185   1.082       .  S
C1174      C1175   1.374       .  A
C1174      H1186   1.082       .  S
C1175      H1187   1.081       .  S
C1176      C1177   1.376       .  A
C1176      H1188   1.082       .  S
C1177      H1189   1.081       .  S
C1178      C1453   1.490       .  S
C1179      C1469   1.488       .  S
C1180      C1306   1.499       .  S
C1181      C1293   1.497       .  S
O1192      C1200   1.267       .  A
O1192     Co1212   1.984       .  S
O1193      C1201   1.270       .  A
O1193     Co1213   2.032       .  S
O1194      C1202   1.269       .  A
O1195      C1203   1.247       .  A
O1195     Co1215   1.944   1_565  S
O1196      C1202   1.297       .  A
O1196     Co1213   2.121       .  S
O1197      C1203   1.281       .  A
O1197     Co1212   2.078       .  S
O1198      C1201   1.249       .  A
O1199      C1200   1.282       .  A
O1199     Co1214   2.012   1_565  S
C1200      C1565   1.505       .  S
C1201      C1290   1.482       .  S
C1202      C1549   1.507       .  S
C1203      C1325   1.494       .  S
O1204      C1217   1.261       .  A
O1204     Co1212   1.971   1_655  S
O1205      C1218   1.266       .  A
O1205     Co1213   1.865       .  S
O1206      C1219   1.265       .  A
O1206     Co1214   2.001   1_565  S
O1207      C1220   1.273   1_455  A
O1208      C1220   1.263   1_455  A
O1208     Co1213   1.977       .  S
O1209      C1219   1.269       .  A
O1209     Co1212   1.989       .  S
O1210      C1217   1.274   1_455  A
O1210     Co1215   2.039   1_565  S
O1211      C1218   1.305       .  A
Co1212     O1216   2.055   1_565  S
Co1214     O1216   2.029       .  S
Co1215     O1216   2.033       .  S
C1217      C3141   1.503       .  S
C1218      C1578   1.468       .  S
C1219      C1594   1.504       .  S
C1220      C3109   1.493       .  S
N1221      C1226   1.352       .  A
N1221      C1225   1.356       .  A
N1221      H1253   1.045       .  S
N1222      C1229   1.361       .  A
N1222      C1230   1.352       .  A
N1223      C1228   1.367       .  A
N1223      C1227   1.355       .  A
N1223      H1254   1.039       .  S
N1224      C1231   1.345       .  A
N1224      C1232   1.350       .  A
C1225      C1233   1.383       .  A
C1225      C1241   1.412       .  A
C1226      C1242   1.414       .  A
C1226      C1234   1.389       .  A
C1227      C1235   1.388       .  A
C1227      C1244   1.433       .  A
C1228      C1243   1.443       .  A
C1228      C1236   1.389       .  A
C1229      C1241   1.428       .  A
C1229      C1237   1.388       .  A
C1230      C1244   1.425       .  A
C1230      C1238   1.386       .  A
C1231      C1239   1.385       .  A
C1231      C1242   1.407       .  A
C1232      C1240   1.388       .  A
C1232      C1243   1.420       .  A
C1233      C1234   1.375       .  A
C1233      H1245   1.083       .  S
C1234      H1246   1.082       .  S
C1235      C1236   1.382       .  A
C1235      H1247   1.082       .  S
C1236      H1248   1.081       .  S
C1237      C1238   1.372       .  A
C1237      H1249   1.079       .  S
C1238      H1250   1.083       .  S
C1239      C1240   1.377       .  A
C1239      H1251   1.082       .  S
C1240      H1252   1.082       .  S
C1241      C1533   1.544       .  S
C1242      C1517   1.478       .  S
C1243      C1370   1.524       .  S
C1244      C1357   1.498       .  S
N1255      C1260   1.358       .  A
N1255      C1259   1.351       .  A
N1255      H1287   1.042       .  S
N1256      C1263   1.346       .  A
N1256      C1264   1.353       .  A
N1257      C1262   1.348       .  A
N1257      C1261   1.351       .  A
N1257      H1288   1.038       .  S
N1258      C1265   1.357       .  A
N1258      C1266   1.351       .  A
C1259      C1267   1.390       .  A
C1259      C1275   1.421       .  A
C1260      C1276   1.423       .  A
C1260      C1268   1.385       .  A
C1261      C1269   1.382       .  A
C1261      C1278   1.406       .  A
C1262      C1277   1.416       .  A
C1262      C1270   1.392       .  A
C1263      C1275   1.414       .  A
C1263      C1271   1.389       .  A
C1264      C1278   1.413       .  A
C1264      C1272   1.384       .  A
C1265      C1273   1.381       .  A
C1265      C1276   1.419       .  A
C1266      C1274   1.388       .  A
C1266      C1277   1.426       .  A
C1267      C1268   1.384       .  A
C1267      H1279   1.082       .  S
C1268      H1280   1.082       .  S
C1269      C1270   1.372       .  A
C1269      H1281   1.082       .  S
C1270      H1282   1.079       .  S
C1271      C1272   1.378       .  A
C1271      H1283   1.082       .  S
C1272      H1284   1.082       .  S
C1273      C1274   1.364       .  A
C1273      H1285   1.082       .  S
C1274      H1286   1.074       .  S
C1275      C1501   1.483       .  S
C1276      C1485   1.527       .  S
C1277      C1402   1.486       .  S
C1278      C1389   1.493       .  S
C1289      C1290   1.403       .  A
C1289      C1294   1.412       .  A
C1289      H1296   1.084       .  S
C1290      C1291   1.423       .  A
C1291      C1292   1.395       .  A
C1291      C1298   1.519       .  S
C1292      C1293   1.399       .  A
C1292      H1297   1.085       .  S
C1293      C1294   1.425       .  A
C1294      C1295   1.517       .  S
C1295      F1299   1.383       .  S
C1295      F1300   1.382       .  S
C1295      F1301   1.384       .  S
C1298      F1302   1.385       .  S
C1298      F1303   1.378       .  S
C1298      F1304   1.384       .  S
C1305      C1306   1.403       .  A
C1305      C1310   1.408       .  A
C1305      H1312   1.085       .  S
C1306      C1307   1.420       .  A
C1307      C1308   1.403       .  A
C1307      C1314   1.518       .  S
C1308      C1309   1.405       .  A
C1308      H3113   1.085       .  S
C1309      C1310   1.428       .  A
C1309      C3020   1.487       .  S
C1310      C1311   1.521       .  S
C1311      F1315   1.384       .  S
C1311      F1316   1.373       .  S
C1311      F1317   1.384       .  S
H1313      C3108   1.085   1_455  S
C1314      F1318   1.384       .  S
C1314      F1319   1.381       .  S
C1314      F3120   1.384       .  S
F1320      C3114   1.384       .  S
C1321      C1322   1.407       .  A
C1321      C1326   1.411       .  A
C1321      H1328   1.083       .  S
C1322      C1323   1.427       .  A
C1323      C1324   1.418       .  A
C1323      C1330   1.517       .  S
C1324      C1325   1.405       .  A
C1324      H1329   1.083       .  S
C1325      C1326   1.419       .  A
C1326      C1327   1.516       .  S
C1327      F1332   1.384       .  S
C1330      F1334   1.381       .  S
C1330      F1335   1.383       .  S
C1330      F1336   1.384       .  S
C1337      C1338   1.402       .  A
C1337      C1342   1.414       .  A
C1337      H1344   1.083       .  S
C1338      C1339   1.420       .  A
C1339      C1340   1.416       .  A
C1339      C1346   1.518       .  S
C1340      C1341   1.407       .  A
C1340      H1345   1.083   1_565  S
C1341      C1342   1.425       .  A
C1341      C3017   1.502       .  S
C1342      C1343   1.519       .  S
C1343      F1347   1.385       .  S
C1343      F1348   1.384       .  S
C1343      F1349   1.382       .  S
C1346      F1350   1.382       .  S
C1346      F1351   1.383   1_565  S
C1346      F1352   1.384   1_565  S
C1353      C1354   1.409       .  A
C1353      C1358   1.397       .  A
C1353      H1360   1.083       .  S
C1354      C1355   1.421       .  A
C1355      C1356   1.418       .  A
C1355      C1362   1.515       .  S
C1356      C1357   1.409       .  A
C1356      H1361   1.083       .  S
C1357      C1358   1.420       .  A
C1358      C1359   1.525       .  S
C1359      F1363   1.383       .  S
C1359      F1364   1.380       .  S
C1359      F1365   1.383       .  S
C1362      F1366   1.377       .  S
C1362      F1367   1.384       .  S
C1362      F1368   1.385       .  S
C1369      C1370   1.395       .  A
C1369      C1374   1.408       .  A
C1369      H1376   1.085       .  S
C1370      C1371   1.432       .  A
C1371      C1372   1.425       .  A
C1371      C1378   1.517       .  S
C1372      C1373   1.408       .  A
C1372      H1377   1.084       .  S
C1373      C1374   1.437       .  A
C1374      C1375   1.510       .  S
C1375      F1379   1.386       .  S
C1375      F1380   1.362       .  S
C1375      F1381   1.377       .  S
C1378      F1382   1.381       .  S
C1378      F1383   1.383       .  S
C1378      F1384   1.383       .  S
C1385      C1386   1.407       .  A
C1385      C1390   1.408       .  A
C1385      H1392   1.083       .  S
C1386      C1387   1.426       .  A
C1387      C1388   1.411       .  A
C1387      C1394   1.520       .  S
C1388      C1389   1.400       .  A
C1388      H1393   1.083       .  S
C1389      C1390   1.416       .  A
C1390      C1391   1.521       .  S
C1391      F1395   1.383       .  S
C1391      F1396   1.383       .  S
C1391      F1397   1.381       .  S
C1394      F1398   1.383       .  S
C1394      F1399   1.384       .  S
C1394      F1400   1.385       .  S
C1401      C1402   1.397       .  A
C1401      C1406   1.385       .  A
C1401      H1408   1.085       .  S
C1402      C1403   1.426       .  A
C1403      C1404   1.410       .  A
C1403      C1410   1.517       .  S
C1404      C1405   1.401       .  A
C1404      H1409   1.084       .  S
C1405      C1406   1.416       .  A
C1406      C3207   1.517       .  S
C1407      C3206   1.517       .  S
C1407      F1411   1.384       .  S
C1407      F1412   1.375   1_655  S
C1407      F3213   1.382       .  S
C1410      F1414   1.382       .  S
C1410      F1415   1.383       .  S
C1410      F1416   1.384       .  S
F1413      C3207   1.382       .  S
C1417      C1418   1.403       .  A
C1417      C1422   1.408       .  A
C1417      H1424   1.083       .  S
C1418      C1419   1.422       .  A
C1419      C1420   1.415       .  A
C1419      C1426   1.517       .  S
C1420      C1421   1.410       .  A
C1420      H1425   1.083       .  S
C1421      C1422   1.430       .  A
C1422      C1423   1.523       .  S
C1423      F1427   1.383       .  S
C1423      F1428   1.384   1_556  S
C1423      F1429   1.385       .  S
C1426      F1430   1.383       .  S
C1426      F1431   1.382       .  S
C1426      F1432   1.384       .  S
C1433      C1434   1.401       .  A
C1433      C1438   1.405       .  A
C1433      H1440   1.071       .  S
C1434      C1435   1.413       .  A
C1434      C2922   1.497       .  S
C1435      C1436   1.419       .  A
C1435      C3242   1.513       .  S
C1436      C1437   1.413       .  A
C1436      H1441   1.083       .  S
C1437      C1438   1.420       .  A
C1438      C1439   1.524       .  S
C1439      F1443   1.383       .  S
C1439      F1444   1.382       .  S
C1439      F1445   1.379       .  S
C1442      C3235   1.513       .  S
C1442      F1446   1.382   1_655  S
C1442      F1447   1.384   1_655  S
C1442      F1448   1.384       .  S
C1449      C1450   1.411       .  A
C1449      C1454   1.402       .  A
C1449      H1456   1.083       .  S
C1450      C1451   1.426       .  A
C1451      C1452   1.413       .  A
C1451      C1458   1.513       .  S
C1452      C1453   1.402       .  A
C1452      H1457   1.083       .  S
C1453      C1454   1.414       .  A
C1454      C1455   1.522       .  S
C1455      F1459   1.382       .  S
C1455      F1460   1.384       .  S
C1455      F1461   1.382       .  S
C1458      F1462   1.385       .  S
C1458      F1463   1.384       .  S
C1458      F1464   1.381       .  S
C1465      C1466   1.399       .  A
C1465      C1470   1.404       .  A
C1465      H1472   1.083       .  S
C1466      C1467   1.413       .  A
C1466      C2903   1.471       .  S
C1467      C1468   1.408       .  A
C1467      C1474   1.515       .  S
C1468      C1469   1.403       .  A
C1468      H1473   1.083       .  S
C1469      C1470   1.420       .  A
C1470      C1471   1.520       .  S
C1471      F1475   1.385       .  S
C1471      F1476   1.382       .  S
C1471      F1477   1.379       .  S
C1474      F1478   1.380       .  S
C1474      F1479   1.384       .  S
C1474      F1480   1.384       .  S
C1481      C1482   1.410       .  A
C1481      C1486   1.418       .  A
C1481      H1488   1.083       .  S
C1482      C1483   1.417       .  A
C1483      C1484   1.407       .  A
C1483      C3290   1.521       .  S
C1484      C1485   1.414       .  A
C1484      H1489   1.081       .  S
C1485      C1486   1.427       .  A
C1486      C1487   1.518       .  S
C1487      F1491   1.383       .  S
C1487      F1492   1.381       .  S
C1487      F1493   1.383       .  S
C1490      C3283   1.515   1_455  S
C1490      F1494   1.385       .  S
C1490      F1495   1.379       .  S
C1490      F1496   1.382       .  S
C1497      C1498   1.408       .  A
C1497      C1502   1.400       .  A
C1497      H1504   1.082       .  S
C1498      C1499   1.427       .  A
C1499      C1500   1.408       .  A
C1499      C1506   1.520   1_565  S
C1500      C1501   1.400       .  A
C1500      H1505   1.083       .  S
C1501      C1502   1.410       .  A
C1502      C1503   1.518       .  S
C1503      F1507   1.382       .  S
C1503      F1508   1.382       .  S
C1503      F1509   1.385       .  S
C1506      F1510   1.384       .  S
C1506      F1512   1.382       .  S
C1513      C1514   1.405       .  A
C1513      C1518   1.406       .  A
C1513      H1520   1.084       .  S
C1514      C1515   1.418       .  A
C1515      C1516   1.397       .  A
C1515      C3322   1.511       .  S
C1516      C1517   1.396       .  A
C1516      H1521   1.085       .  S
C1517      C1518   1.412       .  A
C1518      C1519   1.516       .  S
C1519      F1523   1.385       .  S
C1519      F1524   1.382       .  S
C1519      F1525   1.383       .  S
C1522      C3315   1.510       .  S
C1522      F1526   1.371       .  S
C1522      F1527   1.381   1_655  S
C1522      F1528   1.385       .  S
C1529      C1530   1.406       .  A
C1529      C1534   1.407       .  A
C1529      H1536   1.084       .  S
C1530      C1531   1.424       .  A
C1531      C1532   1.419       .  A
C1531      C1538   1.511       .  S
C1532      C1533   1.412       .  A
C1532      H1537   1.079       .  S
C1533      C1534   1.427       .  A
C1534      C1535   1.518       .  S
C1535      F1539   1.384       .  S
C1535      F1540   1.382       .  S
C1535      F1541   1.382       .  S
C1538      F1542   1.382       .  S
C1538      F1543   1.376       .  S
C1538      F1544   1.385       .  S
C1545      C1546   1.416       .  A
C1545      C1550   1.422       .  A
C1545      H1552   1.083       .  S
C1546      C1547   1.426       .  A
C1547      C1548   1.415       .  A
C1547      C1554   1.522       .  S
C1548      C1549   1.406       .  A
C1548      H1553   1.082       .  S
C1549      C1550   1.417       .  A
C1550      C1551   1.516       .  S
C1551      F1555   1.384       .  S
C1551      F1556   1.383       .  S
C1551      F1557   1.383       .  S
C1554      F1558   1.382       .  S
C1554      F1559   1.379       .  S
C1554      F1560   1.382       .  S
C1561      C1562   1.400       .  A
C1561      C1566   1.404       .  A
C1561      H1568   1.084       .  S
C1562      C1563   1.425       .  A
C1563      C1564   1.416       .  A
C1563      C1570   1.516       .  S
C1564      C1565   1.408       .  A
C1564      H1569   1.084       .  S
C1565      C1566   1.434       .  A
C1566      C1567   1.525       .  S
C1567      F1571   1.384       .  S
C1567      F1572   1.382       .  S
C1567      F1573   1.386       .  S
C1570      F1574   1.383       .  S
C1570      F1575   1.382       .  S
C1570      F1576   1.384       .  S
C1577      C1578   1.398       .  A
C1577      C1582   1.402       .  A
C1577      H1584   1.082       .  S
C1578      C3379   1.413   1_455  A
C1579      C3378   1.417       .  A
C1579      C1580   1.408       .  A
C1579      C1586   1.519       .  S
C1580      C1581   1.404       .  A
C1580      H1585   1.083       .  S
C1581      C3382   1.419       .  A
C1582      C3381   1.417   1_455  A
C1582      C1583   1.520       .  S
C1583      F1587   1.384       .  S
C1583      F1588   1.381       .  S
C1583      F1589   1.381       .  S
C1586      F1590   1.385       .  S
C1586      F1591   1.382       .  S
C1586      F1592   1.383       .  S
C1593      C3394   1.411       .  A
C1593      C1598   1.410       .  A
C1593      H1600   1.084       .  S
C1594      C3393   1.411   1_455  A
C1594      C1595   1.429       .  A
C1595      C1596   1.411       .  A
C1595      C1602   1.523       .  S
C1596      C3397   1.404   1_455  A
C1596      H1601   1.083       .  S
C1597      C3396   1.403       .  A
C1597      C1598   1.417       .  A
C1598      C1599   1.518       .  S
C1599      F1603   1.384       .  S
C1599      F1604   1.383       .  S
C1599      F1605   1.381       .  S
C1602      F1606   1.383       .  S
C1602      F1607   1.384       .  S
C1602      F1608   1.385       .  S
C1609      C1610   1.408       .  A
C1609      C1614   1.403       .  A
C1609      H1616   1.082       .  S
C1610      C1611   1.419       .  A
C1611      C1612   1.409       .  A
C1611      C1618   1.515       .  S
C1612      C1613   1.404       .  A
C1612      H1617   1.084       .  S
C1613      C1614   1.419       .  A
C1614      C1615   1.525       .  S
C1615      F1619   1.385       .  S
C1615      F1620   1.380       .  S
C1615      F1621   1.382       .  S
C1618      F1622   1.382       .  S
C1618      F1623   1.382       .  S
C1618      F1624   1.384       .  S
C1625      C1626   1.398       .  A
C1625      C1630   1.399       .  A
C1625      H1632   1.083       .  S
C1626      C1627   1.405       .  A
C1627      C1628   1.402       .  A
C1627      C1634   1.518       .  S
C1628      C1629   1.413       .  A
C1628      H1633   1.083       .  S
C1629      C1630   1.423       .  A
C1630      C1631   1.519       .  S
C1631      F1635   1.385       .  S
C1631      F1636   1.382       .  S
C1631      F1637   1.381       .  S
C1634      F1638   1.384       .  S
C1634      F1639   1.383       .  S
C1634      F1640   1.381       .  S
C1641      C1642   1.406       .  A
C1641      C1646   1.409       .  A
C1641      H1648   1.083       .  S
C1642      C1643   1.427       .  A
C1643      C1644   1.408       .  A
C1643      C1650   1.519       .  S
C1644      C1645   1.398       .  A
C1644      H1649   1.083       .  S
C1645      C1646   1.416       .  A
C1646      C1647   1.518       .  S
C1647      F1651   1.384       .  S
C1647      F1652   1.382       .  S
C1647      F1653   1.383       .  S
C1650      F1654   1.383       .  S
C1650      F1655   1.383       .  S
C1650      F1656   1.385       .  S
C1657      C1658   1.410       .  A
C1657      C1662   1.423       .  A
C1657      H1664   1.084       .  S
C1658      C1659   1.430       .  A
C1659      C1660   1.414       .  A
C1659      C1666   1.519       .  S
C1660      C1661   1.406       .  A
C1660      H1665   1.083       .  S
C1661      C1662   1.429       .  A
C1662      C1663   1.517       .  S
C1663      F1667   1.384       .  S
C1663      F1668   1.382       .  S
C1663      F1669   1.383       .  S
C1666      F1670   1.384   1_565  S
C1666      F1671   1.383       .  S
C1666      F1672   1.385       .  S
C1673      C1674   1.395       .  A
C1673      C1678   1.391       .  A
C1673      H1680   1.086       .  S
C1674      C1675   1.422       .  A
C1675      C1676   1.418       .  A
C1675      C1682   1.515       .  S
C1676      C1677   1.404       .  A
C1676      H1681   1.083       .  S
C1677      C1678   1.422       .  A
C1678      C1679   1.520       .  S
C1679      F1683   1.385       .  S
C1679      F1684   1.379       .  S
C1679      F1685   1.382       .  S
C1682      F1686   1.385       .  S
C1682      F1687   1.383       .  S
C1682      F1688   1.382       .  S
C1689      C1690   1.404       .  A
C1689      C1694   1.417       .  A
C1689      H1696   1.083       .  S
C1690      C1691   1.422       .  A
C1691      C1692   1.416       .  A
C1691      C1698   1.519       .  S
C1692      C1693   1.407       .  A
C1692      H1697   1.084       .  S
C1693      C1694   1.428       .  A
C1694      C1695   1.520       .  S
C1695      F1699   1.385       .  S
C1695      F1700   1.383       .  S
C1695      F1701   1.383       .  S
C1698      F1702   1.383       .  S
C1698      F1703   1.382       .  S
C1698      F1704   1.384       .  S
C1705      C1706   1.408       .  A
C1705      C1710   1.420       .  A
C1705      H1712   1.080       .  S
C1706      C1707   1.422       .  A
C1707      C1708   1.396       .  A
C1707      C1714   1.517       .  S
C1708      C1709   1.401       .  A
C1708      H1713   1.084       .  S
C1709      C1710   1.422       .  A
C1710      C1711   1.516       .  S
C1711      F1715   1.384       .  S
C1711      F1716   1.383       .  S
C1711      F1717   1.380       .  S
C1714      F1718   1.385       .  S
C1714      F1719   1.383       .  S
C1714      F1720   1.383       .  S
C1721      C1722   1.409       .  A
C1721      C1726   1.403       .  A
C1721      H1728   1.085       .  S
C1722      C1723   1.426       .  A
C1723      C1724   1.407       .  A
C1723      C1730   1.520       .  S
C1724      C1725   1.401       .  A
C1724      H1729   1.083       .  S
C1725      C1726   1.416       .  A
C1726      C1727   1.520       .  S
C1727      F1731   1.384       .  S
C1727      F1732   1.383       .  S
C1727      F1733   1.381       .  S
C1730      F1734   1.376       .  S
C1730      F1735   1.376       .  S
C1730      F1736   1.384       .  S
C1737      C1738   1.403       .  A
C1737      C1742   1.412       .  A
C1737      H1744   1.085       .  S
C1738      C1739   1.425       .  A
C1739      C1740   1.416       .  A
C1739      C1746   1.518       .  S
C1740      C1741   1.406       .  A
C1740      H1745   1.085       .  S
C1741      C1742   1.424       .  A
C1742      C1743   1.512       .  S
C1743      F1747   1.384       .  S
C1743      F1748   1.375       .  S
C1743      F1749   1.380       .  S
C1746      F1750   1.382       .  S
C1746      F1751   1.384       .  S
C1746      F1752   1.383       .  S
C1753      C1754   1.407       .  A
C1753      C1758   1.401       .  A
C1753      H1760   1.084       .  S
C1754      C1755   1.428       .  A
C1755      C1756   1.423       .  A
C1755      C1762   1.516       .  S
C1756      C1757   1.410       .  A
C1756      H1761   1.083       .  S
C1757      C1758   1.413       .  A
C1758      C1759   1.506       .  S
C1759      F1763   1.384       .  S
C1759      F1764   1.382   1_565  S
C1759      F3565   1.381       .  S
C1762      F1766   1.381       .  S
C1762      F1767   1.382       .  S
C1762      F1768   1.384       .  S
F1765      C3559   1.383   1_455  S
C1769      C1770   1.403       .  A
C1769      C1774   1.405       .  A
C1769      H1776   1.083       .  S
C1770      C1771   1.425       .  A
C1771      C1772   1.408       .  A
C1771      C1778   1.518       .  S
C1772      C1773   1.398       .  A
C1772      H1777   1.083       .  S
C1773      C1774   1.417       .  A
C1774      C1775   1.520       .  S
C1775      F1779   1.382       .  S
C1775      F1780   1.382       .  S
C1775      F1781   1.382       .  S
C1778      F1782   1.381       .  S
C1778      F1783   1.381       .  S
C1778      F1784   1.385       .  S
C1785      C1786   1.406       .  A
C1785      C1790   1.414       .  A
C1785      H1792   1.084       .  S
C1786      C1787   1.419       .  A
C1787      C1788   1.405       .  A
C1787      C1794   1.525       .  S
C1788      C1789   1.409       .  A
C1788      H1793   1.080       .  S
C1789      C1790   1.421       .  A
C1790      C1791   1.515       .  S
C1791      F1795   1.385       .  S
C1791      F1796   1.384       .  S
C1791      F1797   1.382       .  S
C1794      F1798   1.379       .  S
C1794      F1799   1.383       .  S
C1794      F1800   1.384       .  S
N1801      C1806   1.343       .  A
N1801      C1805   1.350       .  A
N1801      H1833   1.040       .  S
N1802      C1809   1.354       .  A
N1802      C1810   1.349       .  A
N1803      C1808   1.359       .  A
N1803      C1807   1.358       .  A
N1803      H1834   1.041       .  S
N1804      C1811   1.354       .  A
N1804      C1812   1.352       .  A
C1805      C1813   1.387       .  A
C1805      C1821   1.407       .  A
C1806      C1822   1.402       .  A
C1806      C1814   1.386       .  A
C1807      C1815   1.386       .  A
C1807      C1824   1.426       .  A
C1808      C1823   1.427       .  A
C1808      C1816   1.388       .  A
C1809      C1821   1.414       .  A
C1809      C1817   1.382       .  A
C1810      C1824   1.420       .  A
C1810      C1818   1.390       .  A
C1811      C1819   1.382       .  A
C1811      C1822   1.412       .  A
C1812      C1820   1.391       .  A
C1812      C1823   1.422       .  A
C1813      C1814   1.378       .  A
C1813      H1825   1.082       .  S
C1814      H1826   1.082       .  S
C1815      C1816   1.381       .  A
C1815      H1827   1.082       .  S
C1816      H1828   1.081       .  S
C1817      C1818   1.375       .  A
C1817      H1829   1.081       .  S
C1818      H1830   1.082       .  S
C1819      C1820   1.375       .  A
C1819      H1831   1.082       .  S
C1820      H1832   1.081       .  S
C1821      C2686   1.494       .  S
C1822      C2673   1.484       .  S
C1823      C2638   1.501       .  S
C1824      C2654   1.510       .  S
N1835      C1840   1.359       .  A
N1835      C1839   1.356       .  A
N1835      H1867   1.037       .  S
N1836      C1843   1.350       .  A
N1836      C1844   1.354       .  A
N1837      C1842   1.350       .  A
N1837      C1841   1.356       .  A
N1837      H1868   1.042       .  S
N1838      C1845   1.355       .  A
N1838      C1846   1.352       .  A
C1839      C1847   1.389       .  A
C1839      C1855   1.428       .  A
C1840      C1856   1.423       .  A
C1840      C1848   1.384       .  A
C1841      C1849   1.384       .  A
C1841      C1858   1.413       .  A
C1842      C1857   1.417       .  A
C1842      C1850   1.389       .  A
C1843      C1855   1.421       .  A
C1843      C1851   1.392       .  A
C1844      C1858   1.412       .  A
C1844      C1852   1.383       .  A
C1845      C1853   1.386       .  A
C1845      C1856   1.419       .  A
C1846      C1854   1.387       .  A
C1846      C1857   1.416       .  A
C1847      C1848   1.381       .  A
C1847      H1859   1.078       .  S
C1848      H1860   1.082       .  S
C1849      C1850   1.378       .  A
C1849      H1861   1.082       .  S
C1850      H1862   1.081       .  S
C1851      C1852   1.364       .  A
C1851      H1863   1.080       .  S
C1852      H1864   1.083       .  S
C1853      C1854   1.374       .  A
C1853      H1865   1.082       .  S
C1854      H1866   1.082       .  S
C1855      C2574   1.495       .  S
C1856      C2590   1.509       .  S
C1857      C2625   1.487       .  S
C1858      C2609   1.502       .  S
O1869      C1877   1.254       .  A
O1869     Co1889   2.019       .  S
O1870      C1878   1.256       .  A
O1870     Co1890   2.016       .  S
O1871      C1879   1.259       .  A
O1871     Co1891   1.967   1_545  S
O1872      C1880   1.264       .  A
O1872     Co2792   1.964       .  S
O1873      C1879   1.276       .  A
O1873     Co1890   2.033       .  S
O1874      C1880   1.270       .  A
O1874     Co1889   1.998       .  S
O1875      C1878   1.240       .  A
O1875     Co1892   1.945       .  S
O1876      C1877   1.248       .  A
O1876     Co2791   1.969       .  S
C1877      C2689   1.494       .  S
C1878      C2510   1.487       .  S
C1879      C2670   1.485       .  S
C1880      C2529   1.482       .  S
O1881      C1894   1.272       .  A
O1881     Co1889   1.994       .  S
O1882      C1895   1.266       .  A
O1882     Co1890   1.981       .  S
O1883      C1896   1.309       .  A
O1883     Co2791   2.135       .  S
O1884      C1897   1.318       .  A
O1884     Co1892   2.155       .  S
O1885      C1897   1.274       .  A
O1885     Co1890   1.859       .  S
O1886      C1896   1.279       .  A
O1886     Co1889   1.868       .  S
O1887      C1894   1.265       .  A
O1887     Co2792   2.002       .  S
O1888      C1895   1.265       .  A
O1888     Co1891   1.996   1_545  S
Co1889     O2793   1.966       .  S
Co1890     O1893   1.968       .  S
Co1891     O2776   1.958       .  S
Co1891     O2783   2.123       .  S
Co1891     O1893   2.090   1_565  S
Co1892     O2772   1.967   1_545  S
Co1892     O2787   1.997   1_545  S
Co1892     O1893   2.089       .  S
O1893     Co2789   1.974   1_545  S
C1894      C2558   1.517       .  S
C1895      C2606   1.502       .  S
C1896      C2622   1.493       .  S
C1897      C2542   1.496       .  S
N1898      C1903   1.347       .  A
N1898      C1902   1.341       .  A
N1898      H1930   1.057       .  S
N1899      C1906   1.348       .  A
N1899      C1907   1.351       .  A
N1900      C1905   1.349   1_655  A
N1900      C1904   1.357   1_655  A
N1900      H1931   1.057       .  S
N1901      C1908   1.352       .  A
N1901      C1909   1.346       .  A
C1902      C1910   1.388       .  A
C1902      C1918   1.402       .  A
C1903      C1919   1.405       .  A
C1903      C1911   1.387       .  A
C1904      C1921   1.418   1_455  A
C1905      C1920   1.420   1_455  A
C1906      C1918   1.411       .  A
C1906      C1914   1.388       .  A
C1907      C1921   1.409       .  A
C1907      C1915   1.384       .  A
C1908      C1916   1.385       .  A
C1908      C1919   1.414       .  A
C1909      C1917   1.387       .  A
C1909      C1920   1.410       .  A
C1910      C1911   1.377       .  A
C1910      H1922   1.083       .  S
C1911      H1923   1.083       .  S
C1912      C1913   1.381       .  A
C1912      H1924   1.083       .  S
C1913      H1925   1.078       .  S
C1914      C1915   1.374       .  A
C1914      H1926   1.082       .  S
C1915      H1927   1.082       .  S
C1916      C1917   1.377       .  A
C1916      H1928   1.082       .  S
C1917      H1929   1.082       .  S
C1918      C2526   1.470       .  S
C1919      C2513   1.490       .  S
C1920      C2481   1.484   1_655  S
C1921      C2497   1.502   1_655  S
N1932      C1937   1.357       .  A
N1932      C1936   1.361       .  A
N1932      H1964   1.041       .  S
N1933      C1940   1.359       .  A
N1933      C1941   1.356       .  A
N1934      C1939   1.358       .  A
N1934      C1938   1.353       .  A
N1934      H1965   1.042       .  S
N1935      C1942   1.348       .  A
N1935      C1943   1.355       .  A
C1936      C1944   1.384       .  A
C1936      C1952   1.429       .  A
C1937      C1953   1.423       .  A
C1937      C1945   1.386       .  A
C1938      C1946   1.390       .  A
C1938      C1955   1.424       .  A
C1939      C1954   1.421       .  A
C1939      C1947   1.384       .  A
C1940      C1952   1.428       .  A
C1940      C1948   1.386       .  A
C1941      C1955   1.426       .  A
C1941      C1949   1.387       .  A
C1942      C1950   1.386       .  A
C1942      C1953   1.411       .  A
C1943      C1951   1.387       .  A
C1943      C1954   1.417       .  A
C1944      C1945   1.381       .  A
C1944      H1956   1.076       .  S
C1945      H1957   1.082       .  S
C1946      C1947   1.385       .  A
C1946      H1958   1.082       .  S
C1947      H1959   1.082       .  S
C1948      C1949   1.380       .  A
C1948      H1960   1.082       .  S
C1949      H1961   1.082       .  S
C1950      C1951   1.375       .  A
C1950      H1962   1.082       .  S
C1951      H1963   1.081       .  S
C1952      C2561   1.531       .  S
C1953      C2545   1.494       .  S
C1954      C2446   1.519       .  S
C1955      C2462   1.509       .  S
O1966     Co1986   1.926       .  S
O1967      C1975   1.270       .  A
O1967     Co1987   2.024       .  S
O1968      C1976   1.236       .  A
O1968     Co1988   1.977       .  S
O1969      C1977   1.264       .  A
O1969     Co1989   1.976       .  S
O1970     Co1987   2.022       .  S
O1971      C1977   1.276       .  A
O1971     Co1986   2.046       .  S
O1972      C1975   1.261       .  A
O1972     Co1989   1.969       .  S
O1973      C1974   1.282       .  A
O1973     Co1988   2.054       .  S
C1974      C2657   1.477       .  S
C1975      C2398   1.502       .  S
C1976      C2382   1.495       .  S
C1977      C2593   1.499       .  S
O1978      C1991   1.260   1_565  A
O1978     Co2886   1.997       .  S
O1979     Co2887   2.022   1_545  S
O1980      C1993   1.255   1_455  A
O1980     Co2888   1.999   1_445  S
O1981      C1994   1.264       .  A
O1981     Co2889   1.992   1_545  S
O1982      C1994   1.269       .  A
O1982     Co2887   2.008   1_545  S
O1983     Co2886   2.061   1_545  S
O1984      C1991   1.262       .  A
O1984     Co2889   1.982   1_545  S
O1985      C1992   1.277       .  A
O1985     Co2888   1.964   1_545  S
Co1986     O2878   1.921       .  S
Co1986     O2883   2.015       .  S
Co1986     O1990   2.021       .  S
Co1987     O2879   1.973       .  S
Co1987     O2882   1.988       .  S
Co1987     O1990   2.072       .  S
Co1988     O2880   2.002   1_655  S
Co1988     O2885   1.978       .  S
Co1989     O2881   2.023       .  S
Co1989     O2884   2.047       .  S
Co1989     O1990   2.076       .  S
C1991      C2577   1.496       .  S
C1992      C2414   1.493       .  S
C1993      C2641   1.484       .  S
C1994      C2430   1.509       .  S
O1995     Co2015   1.880   1_556  S
O1996      C2004   1.266       .  A
O1996     Co2016   1.982       .  S
O1997      C2005   1.268       .  A
O1997     Co2017   1.994       .  S
O1998     Co2018   2.068       .  S
O1999      C2005   1.266       .  A
O1999     Co2016   1.986   1_556  S
O2000      C2006   1.271       .  A
O2000     Co2015   2.003       .  S
O2001      C2004   1.271       .  A
O2001     Co2018   1.994       .  S
O2002      C2003   1.293       .  A
O2002     Co2017   2.105       .  S
C2004      C2254   1.501       .  S
C2005      C2350   1.505       .  S
C2006      C2273   1.520       .  S
O2007      C2020   1.266       .  A
O2007     Co2015   2.032       .  S
O2008      C2021   1.271       .  A
O2008     Co2016   2.014   1_556  S
O2009      C2022   1.270       .  A
O2009     Co2017   1.926       .  S
O2010      C2023   1.256       .  A
O2010     Co2018   1.965       .  S
O2011      C2023   1.273       .  A
O2011     Co2016   2.036       .  S
O2012     Co2015   2.108   1_556  S
O2013     Co2018   1.948       .  S
O2014      C2021   1.277       .  A
O2014     Co2017   1.998       .  S
Co2016     O2019   2.069       .  S
Co2017     O2019   2.029   1_556  S
Co2018     O2019   2.019       .  S
C2020      C2305   1.469       .  S
C2021      C2321   1.512       .  S
C2023      C2286   1.497       .  S
N2024      C2029   1.354       .  A
N2024      C2028   1.354       .  A
N2024      H2056   1.041       .  S
N2025      C2032   1.356       .  A
N2025      C2033   1.353       .  A
N2026      C2031   1.359       .  A
N2026      C2030   1.356       .  A
N2026      H2057   1.040       .  S
N2027      C2034   1.353       .  A
N2027      C2035   1.351       .  A
C2028      C2036   1.388       .  A
C2028      C2044   1.420       .  A
C2029      C2045   1.417       .  A
C2029      C2037   1.386       .  A
C2030      C2038   1.389       .  A
C2030      C2047   1.428       .  A
C2031      C2046   1.426       .  A
C2031      C2039   1.387       .  A
C2032      C2044   1.420       .  A
C2032      C2040   1.384       .  A
C2033      C2047   1.421       .  A
C2033      C2041   1.387       .  A
C2034      C2042   1.386       .  A
C2034      C2045   1.416       .  A
C2035      C2043   1.386       .  A
C2035      C2046   1.414       .  A
C2036      C2037   1.382       .  A
C2036      H2048   1.082       .  S
C2037      H2049   1.082       .  S
C2038      C2039   1.386       .  A
C2038      H2050   1.082       .  S
C2039      H2051   1.082       .  S
C2040      C2041   1.375       .  A
C2040      H2052   1.080       .  S
C2041      H2053   1.082       .  S
C2042      C2043   1.375       .  A
C2042      H2054   1.082       .  S
C2043      H2055   1.082       .  S
C2044      C2318   1.511       .  S
C2045      C2337   1.504       .  S
C2046      C2238   1.505       .  S
C2047      C2222   1.506       .  S
N2058      C2063   1.353       .  A
N2058      C2062   1.355       .  A
N2058      H2090   1.039       .  S
N2059      C2066   1.351       .  A
N2059      C2067   1.349       .  A
N2060      C2065   1.353       .  A
N2060      C2064   1.351       .  A
N2060      H2091   1.039       .  S
N2061      C2068   1.348       .  A
N2061      C2069   1.352       .  A
C2062      C2070   1.384       .  A
C2062      C2078   1.415       .  A
C2063      C2079   1.422       .  A
C2063      C2071   1.389       .  A
C2064      C2072   1.388       .  A
C2064      C2081   1.418       .  A
C2065      C2080   1.416       .  A
C2065      C2073   1.385       .  A
C2066      C2078   1.408       .  A
C2066      C2074   1.384       .  A
C2067      C2081   1.415       .  A
C2067      C2075   1.389       .  A
C2068      C2076   1.385       .  A
C2068      C2079   1.409       .  A
C2069      C2077   1.386       .  A
C2069      C2080   1.416       .  A
C2070      C2071   1.378       .  A
C2070      H2082   1.082       .  S
C2071      H2083   1.079       .  S
C2072      C2073   1.380       .  A
C2072      H2084   1.082       .  S
C2073      H2085   1.082       .  S
C2074      C2075   1.374       .  A
C2074      H2086   1.082       .  S
C2075      H2087   1.082       .  S
C2076      C2077   1.375       .  A
C2076      H2088   1.082       .  S
C2077      H2089   1.081       .  S
C2078      C2353   1.493       .  S
C2079      C2369   1.490       .  S
C2080      C2206   1.501       .  S
C2081      C2193   1.489       .  S
O2092      C2100   1.270       .  A
O2092     Co2112   1.995       .  S
O2093      C2101   1.267       .  A
O2093     Co2113   2.023       .  S
O2094      C2102   1.270       .  A
O2094     Co3014   1.922       .  S
O2095      C2103   1.243       .  A
O2095     Co2115   1.933       .  S
O2096      C2102   1.296       .  A
O2096     Co2113   2.117       .  S
O2097      C2103   1.278       .  A
O2097     Co2112   2.072       .  S
O2098      C2101   1.245       .  A
O2098     Co3015   1.929       .  S
O2099      C2100   1.283       .  A
O2099     Co2114   2.015       .  S
C2100      C2465   1.510       .  S
C2101      C2190   1.476       .  S
C2102      C2449   1.502       .  S
C2103      C2225   1.483       .  S
O2104      C2117   1.259       .  A
O2104     Co2112   1.963       .  S
O2105      C2118   1.262       .  A
O2105     Co2113   1.868       .  S
O2106      C2119   1.262       .  A
O2106     Co2114   1.989       .  S
O2107      C2120   1.276       .  A
O2107     Co3015   2.028       .  S
O2108      C2120   1.262       .  A
O2108     Co2113   1.973       .  S
O2109      C2119   1.267       .  A
O2109     Co2112   1.989       .  S
O2110      C2117   1.277       .  A
O2110     Co2115   2.045       .  S
O2111      C2118   1.305       .  A
O2111     Co3014   2.146       .  S
Co2112     O2116   2.053       .  S
Co2113     O3016   2.018       .  S
Co2114     O2994   1.922       .  S
Co2114     O3011   2.139       .  S
Co2114     O2116   2.016       .  S
Co2115     O2998   1.938       .  S
Co2115     O3007   2.020       .  S
Co2115     O2116   2.024       .  S
O2116     Co3013   2.014       .  S
C2118      C2478   1.479       .  S
C2119      C2494   1.500       .  S
N2121      C2126   1.357       .  A
N2121      C2125   1.360       .  A
N2121      H2153   1.044       .  S
N2122      C2129   1.358       .  A
N2122      C2130   1.351       .  A
N2123      C2128   1.365       .  A
N2123      C2127   1.355       .  A
N2123      H2154   1.035       .  S
N2124      C2131   1.348       .  A
N2124      C2132   1.354       .  A
C2125      C2133   1.383       .  A
C2125      C2141   1.420       .  A
C2126      C2142   1.423       .  A
C2126      C2134   1.389       .  A
C2127      C2135   1.384       .  A
C2127      C2144   1.424       .  A
C2128      C2143   1.440       .  A
C2128      C2136   1.391       .  A
C2129      C2141   1.425       .  A
C2129      C2137   1.389       .  A
C2130      C2144   1.412       .  A
C2130      C2138   1.382       .  A
C2131      C2139   1.387       .  A
C2131      C2142   1.416       .  A
C2132      C2140   1.387       .  A
C2132      C2143   1.424       .  A
C2133      C2134   1.378       .  A
C2133      H2145   1.083       .  S
C2134      H2146   1.082       .  S
C2135      C2136   1.378       .  A
C2135      H2147   1.082       .  S
C2136      H2148   1.080       .  S
C2137      C2138   1.370       .  A
C2137      H2149   1.080       .  S
C2138      H2150   1.083       .  S
C2139      C2140   1.377       .  A
C2139      H2151   1.082       .  S
C2140      H2152   1.082       .  S
C2141      C2433   1.547       .  S
C2142      C2417   1.498       .  S
C2143      C2270   1.524       .  S
C2144      C2257   1.492       .  S
N2155      C2160   1.357       .  A
N2155      C2159   1.353       .  A
N2155      H2187   1.043       .  S
N2156      C2163   1.348       .  A
N2156      C2164   1.354       .  A
N2157      C2162   1.349       .  A
N2157      C2161   1.351       .  A
N2157      H2188   1.040       .  S
N2158      C2165   1.358       .  A
N2158      C2166   1.353       .  A
C2159      C2167   1.391       .  A
C2159      C2175   1.424       .  A
C2160      C2176   1.422       .  A
C2160      C2168   1.385       .  A
C2161      C2169   1.383       .  A
C2161      C2178   1.409       .  A
C2162      C2177   1.416       .  A
C2162      C2170   1.392       .  A
C2163      C2175   1.416       .  A
C2163      C2171   1.388       .  A
C2164      C2178   1.414       .  A
C2164      C2172   1.384       .  A
C2165      C2173   1.384       .  A
C2165      C2176   1.422       .  A
C2166      C2174   1.388       .  A
C2166      C2177   1.427       .  A
C2167      C2168   1.386       .  A
C2167      H2179   1.082       .  S
C2168      H2180   1.082       .  S
C2169      C2170   1.370       .  A
C2169      H2181   1.082       .  S
C2170      H2182   1.079       .  S
C2171      C2172   1.377       .  A
C2171      H2183   1.082       .  S
C2172      H2184   1.082       .  S
C2173      C2174   1.362       .  A
C2173      H2185   1.081       .  S
C2174      H2186   1.078       .  S
C2175      C2401   1.489       .  S
C2176      C2385   1.525       .  S
C2177      C2302   1.486       .  S
C2178      C2289   1.495       .  S
C2189      C2190   1.402       .  A
C2189      C2194   1.410       .  A
C2189      H2196   1.084       .  S
C2190      C2191   1.425       .  A
C2191      C2192   1.392       .  A
C2191      C2198   1.521       .  S
C2192      C2193   1.396       .  A
C2192      H2197   1.085       .  S
C2193      C2194   1.422       .  A
C2194      C2195   1.515       .  S
C2195      F2199   1.383       .  S
C2195      F2200   1.382       .  S
C2195      F2201   1.383       .  S
C2198      F2202   1.384       .  S
C2198      F2203   1.377       .  S
C2198      F2204   1.384       .  S
C2205      C2206   1.405       .  A
C2205      C2210   1.410       .  A
C2205      H2212   1.085       .  S
C2206      C2207   1.419       .  A
C2207      C2208   1.406       .  A
C2207      C2214   1.519       .  S
C2208      C2209   1.406       .  A
C2209      C2210   1.427       .  A
C2210      C2211   1.520       .  S
C2211      F2215   1.384       .  S
C2211      F2216   1.383       .  S
C2211      F2217   1.375       .  S
C2214      F2218   1.383       .  S
C2214      F2219   1.381       .  S
C2221      C2222   1.405       .  A
C2221      C2226   1.407       .  A
C2221      H2228   1.083       .  S
C2222      C2223   1.423       .  A
C2223      C2224   1.413       .  A
C2223      C2230   1.516       .  S
C2224      C2225   1.403       .  A
C2224      H2229   1.081       .  S
C2225      C2226   1.420       .  A
C2226      C2227   1.520       .  S
C2227      F3131   1.385       .  S
C2227      F2232   1.383       .  S
C2227      F3133   1.382       .  S
C2230      F2234   1.380       .  S
C2230      F2235   1.383       .  S
C2230      F2236   1.384       .  S
F2231      C3127   1.385       .  S
F2233      C3127   1.382       .  S
C2237      C2238   1.402       .  A
C2237      C2242   1.416       .  A
C2237      H2244   1.083       .  S
C2238      C2239   1.417       .  A
C2239      C2240   1.415       .  A
C2239      C2246   1.514       .  S
C2240      C2241   1.403       .  A
C2240      H2245   1.083       .  S
C2241      C2242   1.427       .  A
C2242      C2243   1.520       .  S
C2243      F2247   1.385       .  S
C2243      F2248   1.383       .  S
C2243      F2249   1.382       .  S
C2246      F2250   1.382       .  S
C2246      F2251   1.383       .  S
C2246      F2252   1.378       .  S
C2253      C2254   1.411       .  A
C2253      C2258   1.398       .  A
C2253      H2260   1.081       .  S
C2254      C2255   1.423       .  A
C2255      C2256   1.418       .  A
C2255      C2262   1.516       .  S
C2256      C2257   1.406       .  A
C2256      H2261   1.083       .  S
C2257      C2258   1.414       .  A
C2258      C2259   1.526       .  S
C2259      F2263   1.385       .  S
C2259      F2264   1.381       .  S
C2259      F2265   1.382       .  S
C2262      F2266   1.377       .  S
C2262      F2267   1.383       .  S
C2262      F2268   1.385       .  S
C2269      C2270   1.398       .  A
C2269      C2274   1.407       .  A
C2269      H2276   1.085       .  S
C2270      C2271   1.431       .  A
C2271      C2272   1.426       .  A
C2271      C2278   1.518       .  S
C2272      C2273   1.409       .  A
C2272      H2277   1.084       .  S
C2273      C2274   1.432       .  A
C2274      C2275   1.511       .  S
C2275      F2279   1.386       .  S
C2275      F2280   1.367       .  S
C2275      F2281   1.379       .  S
C2278      F2282   1.381       .  S
C2278      F2283   1.383       .  S
C2278      F2284   1.383       .  S
C2285      C2286   1.408       .  A
C2285      C2290   1.411       .  A
C2285      H2292   1.083       .  S
C2286      C2287   1.426       .  A
C2287      C2288   1.410       .  A
C2287      C2294   1.519       .  S
C2288      C2289   1.399       .  A
C2288      H2293   1.083       .  S
C2289      C2290   1.417       .  A
C2290      C2291   1.519       .  S
C2291      F2295   1.383       .  S
C2291      F2296   1.383       .  S
C2291      F2297   1.381       .  S
C2294      F2298   1.382       .  S
C2294      F2299   1.384       .  S
C2294      F2300   1.385       .  S
C2301      C2302   1.397       .  A
C2301      C2306   1.383       .  A
C2301      H2308   1.085       .  S
C2302      C2303   1.425       .  A
C2303      C2304   1.410       .  A
C2303      C2310   1.517       .  S
C2304      C2305   1.402       .  A
C2304      H2309   1.084       .  S
C2305      C2306   1.415       .  A
C2307      F2311   1.384       .  S
C2307      F2312   1.379       .  S
C2310      F2314   1.382       .  S
C2310      F2315   1.383       .  S
C2310      F2316   1.384       .  S
C2317      C2318   1.401       .  A
C2317      C2322   1.409       .  A
C2317      H2324   1.083       .  S
C2318      C2319   1.423       .  A
C2319      C2320   1.416       .  A
C2319      C2326   1.517       .  S
C2320      C2321   1.411       .  A
C2320      H2325   1.084       .  S
C2321      C2322   1.433       .  A
C2322      C2323   1.524       .  S
C2323      F2327   1.383       .  S
C2323      F2328   1.384   1_556  S
C2323      F2329   1.385       .  S
C2326      F2330   1.383       .  S
C2326      F2331   1.382       .  S
C2326      F2332   1.384       .  S
C2333      C2334   1.402       .  A
C2333      C2338   1.405       .  A
C2333      H2340   1.077       .  S
C2334      C2335   1.416       .  A
C2335      C2336   1.418       .  A
C2336      C2337   1.412       .  A
C2336      H2341   1.083       .  S
C2337      C2338   1.418       .  A
C2338      C2339   1.523       .  S
C2339      F2343   1.381       .  S
C2339      F2344   1.383       .  S
C2339      F2345   1.379       .  S
C2342      F2346   1.382       .  S
C2342      F2347   1.384       .  S
C2342      F2348   1.384       .  S
C2349      C2350   1.411       .  A
C2349      C2354   1.403       .  A
C2349      H2356   1.081       .  S
C2350      C2351   1.427       .  A
C2351      C2352   1.414       .  A
C2351      C2358   1.515       .  S
C2352      C2353   1.402       .  A
C2352      H2357   1.083       .  S
C2353      C2354   1.412       .  A
C2354      C2355   1.521       .  S
C2355      F2359   1.382       .  S
C2355      F2360   1.381       .  S
C2355      F2361   1.383       .  S
C2358      F2362   1.385       .  S
C2358      F2363   1.384       .  S
C2358      F2364   1.382       .  S
C2365      C2366   1.400       .  A
C2365      C2370   1.405       .  A
C2365      H2372   1.083       .  S
C2366      C2367   1.413       .  A
C2367      C2368   1.406       .  A
C2367      C2374   1.516       .  S
C2368      C2369   1.404       .  A
C2368      H2373   1.083       .  S
C2369      C2370   1.421       .  A
C2370      C2371   1.522       .  S
C2371      F2375   1.386       .  S
C2371      F2376   1.382       .  S
C2371      F2377   1.381       .  S
C2374      F2378   1.381       .  S
C2374      F2379   1.383       .  S
C2374      F2380   1.385       .  S
C2381      C2382   1.409       .  A
C2381      C2386   1.419       .  A
C2381      H2388   1.084       .  S
C2382      C2383   1.410       .  A
C2383      C2384   1.402       .  A
C2384      C2385   1.412       .  A
C2384      H2389   1.083       .  S
C2385      C2386   1.430       .  A
C2386      C2387   1.518       .  S
C2387      F2391   1.384       .  S
C2387      F2392   1.380       .  S
C2387      F2393   1.383       .  S
C2390      F2394   1.383       .  S
C2390      F2395   1.380       .  S
C2390      F2396   1.383       .  S
C2397      C2398   1.414       .  A
C2397      C2402   1.405       .  A
C2397      H2404   1.082       .  S
C2398      C2399   1.424       .  A
C2399      C2400   1.410       .  A
C2399      C2406   1.514       .  S
C2400      C2401   1.401       .  A
C2400      H2405   1.083       .  S
C2401      C2402   1.411       .  A
C2402      C2403   1.520       .  S
C2403      F2407   1.381       .  S
C2403      F2408   1.383       .  S
C2403      F2409   1.384       .  S
C2406      F2410   1.384       .  S
C2406      F3311   1.378       .  S
C2406      F2412   1.381       .  S
F2411      C3306   1.376   1_545  S
C2413      C2414   1.400       .  A
C2413      C2418   1.407       .  A
C2413      H2420   1.085       .  S
C2414      C2415   1.426       .  A
C2415      C2416   1.406       .  A
C2416      C2417   1.401       .  A
C2416      H2421   1.083       .  S
C2417      C2418   1.419       .  A
C2418      C2419   1.512       .  S
C2419      F2423   1.382       .  S
C2419      F2424   1.382       .  S
C2419      F2425   1.384       .  S
C2422      F2426   1.378       .  S
C2422      F2427   1.379       .  S
C2422      F2428   1.385       .  S
C2429      C2430   1.410       .  A
C2429      C2434   1.411       .  A
C2429      H2436   1.084       .  S
C2430      C2431   1.422       .  A
C2431      C2432   1.420       .  A
C2431      C2438   1.511       .  S
C2432      C2433   1.415       .  A
C2432      H2437   1.077       .  S
C2433      C2434   1.424       .  A
C2434      C2435   1.518       .  S
C2435      F2439   1.384       .  S
C2435      F2440   1.383       .  S
C2435      F2441   1.381       .  S
C2438      F2442   1.383       .  S
C2438      F2443   1.378       .  S
C2438      F2444   1.385       .  S
C2445      C2446   1.416       .  A
C2445      C2450   1.422       .  A
C2445      H2452   1.083       .  S
C2446      C2447   1.423       .  A
C2447      C2448   1.411       .  A
C2447      C2454   1.522       .  S
C2448      C2449   1.404       .  A
C2448      H2453   1.081       .  S
C2449      C2450   1.417       .  A
C2450      C2451   1.517       .  S
C2451      F2455   1.385       .  S
C2451      F2456   1.382       .  S
C2451      F2457   1.383       .  S
C2454      F2458   1.383       .  S
C2454      F2459   1.378       .  S
C2454      F2460   1.382       .  S
C2461      C2462   1.399       .  A
C2461      C2466   1.406       .  A
C2461      H2468   1.084       .  S
C2462      C2463   1.422       .  A
C2463      C2464   1.417       .  A
C2463      C2470   1.515       .  S
C2464      C2465   1.410       .  A
C2464      H2469   1.084       .  S
C2465      C2466   1.435       .  A
C2466      C2467   1.524       .  S
C2467      F2471   1.383       .  S
C2467      F2472   1.380       .  S
C2467      F2473   1.386       .  S
C2470      F2474   1.382       .  S
C2470      F2475   1.382       .  S
C2470      F2476   1.384       .  S
C2477      C2478   1.402       .  A
C2477      C2482   1.408       .  A
C2477      H2484   1.083       .  S
C2479      C2480   1.407       .  A
C2479      C2486   1.518       .  S
C2480      C2481   1.402   1_655  A
C2480      H2485   1.083       .  S
C2482      C2483   1.521       .  S
C2483      F2487   1.384       .  S
C2483      F2488   1.383       .  S
C2483      F2489   1.381       .  S
C2486      F2490   1.382       .  S
C2486      F2491   1.383       .  S
C2486      F2492   1.385       .  S
C2493      C2498   1.413       .  A
C2493      H2500   1.082       .  S
C2494      C2495   1.431       .  A
C2495      C2496   1.405       .  A
C2495      C2502   1.524       .  S
C2496      H2501   1.083       .  S
C2497      C2498   1.417   1_455  A
C2498      C2499   1.520       .  S
C2499      F2503   1.383       .  S
C2499      F2504   1.384       .  S
C2499      F2505   1.380       .  S
C2502      F2506   1.382       .  S
C2502      F2507   1.384       .  S
C2502      F2508   1.385       .  S
C2509      C2510   1.407       .  A
C2509      C2514   1.400       .  A
C2509      H2516   1.082       .  S
C2510      C2511   1.421       .  A
C2511      C2512   1.411       .  A
C2511      C2518   1.518       .  S
C2512      C2513   1.405       .  A
C2512      H2517   1.083       .  S
C2513      C2514   1.419       .  A
C2514      C2515   1.526       .  S
C2515      F2519   1.385       .  S
C2515      F2520   1.380       .  S
C2515      F2521   1.382       .  S
C2518      F2522   1.383       .  S
C2518      F2523   1.383       .  S
C2518      F2524   1.384   1_655  S
C2525      C2526   1.400       .  A
C2525      C2530   1.400       .  A
C2525      H2532   1.084       .  S
C2526      C2527   1.407       .  A
C2527      C2528   1.398       .  A
C2527      C2534   1.518   1_655  S
C2528      C2529   1.412       .  A
C2528      H2533   1.084       .  S
C2529      C2530   1.420       .  A
C2530      C2531   1.518       .  S
C2531      F2535   1.384       .  S
C2531      F2536   1.383       .  S
C2531      F2537   1.382       .  S
C2534      F2538   1.383       .  S
C2534      F2539   1.382       .  S
C2534      F2540   1.383       .  S
C2541      C2542   1.407       .  A
C2541      C2546   1.411       .  A
C2541      H2548   1.083       .  S
C2542      C2543   1.427       .  A
C2543      C2544   1.407       .  A
C2543      C2550   1.517       .  S
C2544      C2545   1.396       .  A
C2544      H2549   1.083       .  S
C2545      C2546   1.417       .  A
C2546      C2547   1.517       .  S
C2547      F2551   1.385       .  S
C2547      F2552   1.382       .  S
C2547      F2553   1.383       .  S
C2550      F2554   1.383       .  S
C2550      F2555   1.383       .  S
C2550      F2556   1.385       .  S
C2557      C2558   1.410       .  A
C2557      C2562   1.424       .  A
C2557      H2564   1.084       .  S
C2558      C2559   1.427       .  A
C2559      C2560   1.413       .  A
C2559      C2566   1.519       .  S
C2560      C2561   1.407       .  A
C2560      H2565   1.083       .  S
C2561      C2562   1.432       .  A
C2562      C2563   1.518       .  S
C2563      F2567   1.384       .  S
C2563      F2568   1.381       .  S
C2563      F2569   1.384       .  S
C2566      F2570   1.384       .  S
C2566      F2571   1.383       .  S
C2566      F2572   1.385       .  S
C2573      C2574   1.400       .  A
C2573      C2578   1.402       .  A
C2573      H2580   1.084       .  S
C2574      C2575   1.419       .  A
C2575      C2576   1.413       .  A
C2575      C2582   1.519       .  S
C2576      C2577   1.410       .  A
C2576      H2581   1.083       .  S
C2577      C2578   1.424       .  A
C2578      C2579   1.517       .  S
C2579      F2583   1.385       .  S
C2579      F2584   1.384       .  S
C2579      F2585   1.371       .  S
C2582      F2586   1.385       .  S
C2582      F2587   1.383       .  S
C2582      F2588   1.380       .  S
C2589      C2590   1.406       .  A
C2589      C2594   1.417       .  A
C2589      H2596   1.083       .  S
C2590      C2591   1.417       .  A
C2591      C2592   1.416       .  A
C2591      C2598   1.515       .  S
C2592      C2593   1.405       .  A
C2592      H2597   1.083       .  S
C2593      C2594   1.422       .  A
C2594      C2595   1.518       .  S
C2595      F2599   1.385       .  S
C2595      F2600   1.383       .  S
C2595      F2601   1.382       .  S
C2598      F2602   1.382       .  S
C2598      F2603   1.383       .  S
C2598      F2604   1.381       .  S
C2605      C2606   1.410       .  A
C2605      C2610   1.420       .  A
C2605      H2612   1.079       .  S
C2606      C2607   1.421       .  A
C2607      C2608   1.397       .  A
C2607      C2614   1.514       .  S
C2608      C2609   1.400       .  A
C2608      H2613   1.085       .  S
C2609      C2610   1.419       .  A
C2610      C2611   1.516       .  S
C2611      F2615   1.383       .  S
C2611      F2616   1.383       .  S
C2611      F2617   1.382       .  S
C2614      F2618   1.386       .  S
C2614      F2619   1.383       .  S
C2614      F2620   1.382       .  S
C2621      C2622   1.409       .  A
C2621      C2626   1.401       .  A
C2621      H2628   1.084       .  S
C2622      C2623   1.428       .  A
C2623      C2624   1.408       .  A
C2623      C2630   1.522       .  S
C2624      C2625   1.401       .  A
C2624      H2629   1.083       .  S
C2625      C2626   1.414       .  A
C2626      C2627   1.520       .  S
C2627      F2631   1.384       .  S
C2627      F2632   1.383       .  S
C2627      F2633   1.382       .  S
C2630      F2634   1.374       .  S
C2630      F2635   1.376       .  S
C2630      F2636   1.385       .  S
C2637      C2638   1.402       .  A
C2637      C2642   1.406   1_655  A
C2637      H2644   1.084   1_655  S
C2638      C2639   1.420       .  A
C2639      C2640   1.412       .  A
C2639      C2646   1.518       .  S
C2640      C2641   1.404       .  A
C2640      H2645   1.083       .  S
C2641      C2642   1.420   1_655  A
C2642      C2643   1.514       .  S
C2643      F2647   1.383       .  S
C2643      F2648   1.377       .  S
C2643      F2649   1.379       .  S
C2646      F2650   1.385       .  S
C2646      F2651   1.383       .  S
C2646      F2652   1.380       .  S
C2653      C2654   1.405       .  A
C2653      C2658   1.393       .  A
C2653      H2660   1.084       .  S
C2654      C2655   1.429       .  A
C2655      C2656   1.418       .  A
C2655      C2662   1.517       .  S
C2656      C2657   1.405       .  A
C2656      H2661   1.084       .  S
C2657      C2658   1.415       .  A
C2658      C2659   1.517       .  S
C2659      F2663   1.384       .  S
C2659      F2664   1.384       .  S
C2662      F2666   1.382       .  S
C2662      F2667   1.383       .  S
C2662      F2668   1.383       .  S
C2669      C2670   1.403       .  A
C2669      C2674   1.407       .  A
C2669      H2676   1.083       .  S
C2670      C2671   1.425       .  A
C2671      C2672   1.406       .  A
C2671      C2678   1.518       .  S
C2672      C2673   1.397       .  A
C2672      H2677   1.083       .  S
C2673      C2674   1.418       .  A
C2674      C2675   1.521       .  S
C2675      F2679   1.384       .  S
C2675      F2680   1.382       .  S
C2675      F2681   1.382       .  S
C2678      F2682   1.381       .  S
C2678      F2683   1.380       .  S
C2678      F2684   1.385       .  S
C2685      C2686   1.407       .  A
C2685      C2690   1.411       .  A
C2685      H2692   1.084       .  S
C2686      C2687   1.418       .  A
C2687      C2688   1.405       .  A
C2687      C2694   1.525       .  S
C2688      C2689   1.410       .  A
C2688      H2693   1.082       .  S
C2689      C2690   1.415       .  A
C2690      C2691   1.513       .  S
C2691      F2695   1.384   1_655  S
C2691      F2696   1.384       .  S
C2691      F2697   1.382       .  S
C2694      F2698   1.380       .  S
C2694      F2699   1.383       .  S
C2694      F2700   1.384       .  S
N2701      C2706   1.344       .  A
N2701      C2705   1.349       .  A
N2701      H2733   1.041       .  S
N2702      C2709   1.352       .  A
N2702      C2710   1.348       .  A
N2703      C2708   1.358       .  A
N2703      C2707   1.360       .  A
N2703      H2734   1.041       .  S
N2704      C2711   1.356       .  A
N2704      C2712   1.352       .  A
C2705      C2713   1.387       .  A
C2705      C2721   1.408       .  A
C2706      C2722   1.402       .  A
C2706      C2714   1.386       .  A
C2707      C2715   1.386       .  A
C2707      C2724   1.427       .  A
C2708      C2723   1.429       .  A
C2708      C2716   1.389       .  A
C2709      C2721   1.412       .  A
C2709      C2717   1.383       .  A
C2710      C2724   1.415       .  A
C2710      C2718   1.389       .  A
C2711      C2719   1.381       .  A
C2711      C2722   1.414       .  A
C2712      C2720   1.391       .  A
C2712      C2723   1.425       .  A
C2713      C2714   1.378       .  A
C2713      H2725   1.082       .  S
C2714      H2726   1.082       .  S
C2715      C2716   1.382       .  A
C2715      H2727   1.082       .  S
C2716      H2728   1.081       .  S
C2717      C2718   1.374       .  A
C2717      H2729   1.080       .  S
C2718      H2730   1.083       .  S
C2719      C2720   1.376       .  A
C2719      H2731   1.082       .  S
C2720      H2732   1.080       .  S
C2721      C3586   1.491       .  S
C2722      C3573   1.490       .  S
C2723      C3538   1.503       .  S
C2724      C3554   1.507       .  S
N2735      C2740   1.355       .  A
N2735      C2739   1.350       .  A
N2735      H2767   1.035       .  S
N2736      C2743   1.349       .  A
N2736      C2744   1.354       .  A
N2737      C2742   1.350       .  A
N2737      C2741   1.357       .  A
N2737      H2768   1.042       .  S
N2738      C2745   1.353       .  A
N2738      C2746   1.347       .  A
C2739      C2747   1.390       .  A
C2739      C2755   1.419       .  A
C2740      C2756   1.418       .  A
C2740      C2748   1.386       .  A
C2741      C2749   1.384       .  A
C2741      C2758   1.414       .  A
C2742      C2757   1.417       .  A
C2742      C2750   1.390       .  A
C2743      C2755   1.421       .  A
C2743      C2751   1.392       .  A
C2744      C2758   1.411       .  A
C2744      C2752   1.383       .  A
C2745      C2753   1.386       .  A
C2745      C2756   1.416       .  A
C2746      C2754   1.388       .  A
C2746      C2757   1.413       .  A
C2747      C2748   1.378       .  A
C2747      H2759   1.082       .  S
C2748      H2760   1.082       .  S
C2749      C2750   1.379       .  A
C2749      H2761   1.082       .  S
C2750      H2762   1.081       .  S
C2751      C2752   1.363       .  A
C2751      H2763   1.081       .  S
C2752      H2764   1.083       .  S
C2753      C2754   1.373       .  A
C2753      H2765   1.082       .  S
C2754      H2766   1.082       .  S
C2755      C3474   1.479       .  S
C2756      C3490   1.498       .  S
C2757      C3525   1.481       .  S
C2758      C3509   1.505       .  S
O2769      C2777   1.257       .  A
O2769     Co2789   2.025       .  S
O2770      C2778   1.256       .  A
O2770     Co2790   2.007       .  S
O2771      C2779   1.262       .  A
O2771     Co2791   1.975       .  S
O2772      C2780   1.264       .  A
O2773      C2779   1.277       .  A
O2773     Co2790   2.029       .  S
O2774      C2780   1.271       .  A
O2774     Co2789   2.009       .  S
O2775      C2778   1.243       .  A
O2775     Co2792   1.957       .  S
O2776      C2777   1.244       .  A
C2777      C3589   1.499       .  S
C2778      C3410   1.489       .  S
C2779      C3570   1.488       .  S
C2780      C3429   1.492       .  S
O2781      C2794   1.271       .  A
O2781     Co2789   1.993       .  S
O2782      C2795   1.267       .  A
O2782     Co2790   1.986       .  S
O2783      C2796   1.307       .  A
O2784      C2797   1.317       .  A
O2784     Co2792   2.153       .  S
O2785      C2797   1.276       .  A
O2785     Co2790   1.863       .  S
O2786      C2796   1.279       .  A
O2786     Co2789   1.866       .  S
O2787      C2794   1.264       .  A
O2788      C2795   1.266       .  A
O2788     Co2791   1.992       .  S
Co2790     O2793   1.964       .  S
Co2791     O2793   2.097       .  S
Co2792     O2793   2.101       .  S
C2794      C3458   1.513       .  S
C2795      C3506   1.502       .  S
C2796      C3522   1.485       .  S
C2797      C3442   1.498       .  S
N2798      C2803   1.349       .  A
N2798      C2802   1.346       .  A
N2798      H2830   1.042       .  S
N2799      C2806   1.350       .  A
N2799      C2807   1.349       .  A
N2800      C2805   1.353       .  A
N2800      C2804   1.358       .  A
N2800      H2831   1.040       .  S
N2801      C2808   1.352       .  A
N2801      C2809   1.348       .  A
C2802      C2810   1.386       .  A
C2802      C2818   1.405       .  A
C2803      C2819   1.408       .  A
C2803      C2811   1.387       .  A
C2804      C2821   1.422       .  A
C2805      C2820   1.423       .  A
C2806      C2818   1.411       .  A
C2806      C2814   1.387       .  A
C2807      C2821   1.408       .  A
C2807      C2815   1.384       .  A
C2808      C2816   1.386       .  A
C2808      C2819   1.414       .  A
C2809      C2817   1.387       .  A
C2809      C2820   1.411       .  A
C2810      C2811   1.379       .  A
C2810      H2822   1.082       .  S
C2811      H2823   1.082       .  S
C2812      C2813   1.381       .  A
C2812      H2824   1.082       .  S
C2813      H2825   1.077       .  S
C2814      C2815   1.373       .  A
C2814      H2826   1.082       .  S
C2815      H2827   1.082       .  S
C2816      C2817   1.376       .  A
C2816      H2828   1.082       .  S
C2817      H2829   1.082       .  S
C2818      C3426   1.482       .  S
C2819      C3413   1.491       .  S
C2820      C3381   1.487       .  S
C2821      C3397   1.498       .  S
N2832      C2837   1.358       .  A
N2832      C2836   1.360       .  A
N2832      H2864   1.041       .  S
N2833      C2840   1.355       .  A
N2833      C2841   1.353       .  A
N2834      C2839   1.357       .  A
N2834      C2838   1.353       .  A
N2834      H2865   1.043       .  S
N2835      C2842   1.348       .  A
N2835      C2843   1.354       .  A
C2836      C2844   1.383       .  A
C2836      C2852   1.429       .  A
C2837      C2853   1.426       .  A
C2837      C2845   1.387       .  A
C2838      C2846   1.390       .  A
C2838      C2855   1.424       .  A
C2839      C2854   1.419       .  A
C2839      C2847   1.384       .  A
C2840      C2852   1.422       .  A
C2840      C2848   1.386       .  A
C2841      C2855   1.419       .  A
C2841      C2849   1.385       .  A
C2842      C2850   1.386       .  A
C2842      C2853   1.411       .  A
C2843      C2851   1.387       .  A
C2843      C2854   1.418       .  A
C2844      C2845   1.384       .  A
C2844      H2856   1.074       .  S
C2845      H2857   1.082       .  S
C2846      C2847   1.385       .  A
C2846      H2858   1.082       .  S
C2847      H2859   1.082       .  S
C2848      C2849   1.380       .  A
C2848      H2860   1.082       .  S
C2849      H2861   1.081       .  S
C2850      C2851   1.376       .  A
C2850      H2862   1.082       .  S
C2851      H2863   1.081       .  S
C2852      C3461   1.525       .  S
C2853      C3445   1.499       .  S
C2854      C3346   1.516       .  S
C2855      C3362   1.510       .  S
O2866     Co2886   1.939       .  S
O2867      C2875   1.278       .  A
O2867     Co2887   2.019       .  S
O2868      C2876   1.248       .  A
O2868     Co2888   1.956       .  S
O2869      C2877   1.274       .  A
O2869     Co2889   2.034       .  S
O2870     Co2887   1.986       .  S
O2871      C2877   1.262       .  A
O2871     Co2886   1.957       .  S
O2872      C2875   1.270       .  A
O2872     Co2889   1.977       .  S
O2873      C2874   1.278       .  A
O2873     Co2888   2.046       .  S
C2874      C3557   1.476       .  S
C2875      C3298   1.493       .  S
C2876      C3282   1.489       .  S
C2877      C3493   1.511       .  S
O2878      C2891   1.236       .  A
O2880      C2893   1.254   1_455  A
O2881      C2894   1.276       .  A
O2882      C2894   1.270       .  A
O2884      C2891   1.266       .  A
O2885      C2892   1.294       .  A
Co2886     O2890   2.021       .  S
Co2887     O2890   2.040       .  S
Co2889     O2890   2.055       .  S
C2891      C3477   1.469       .  S
C2892      C3314   1.481       .  S
C2893      C3541   1.489       .  S
C2894      C3330   1.502       .  S
O2895     Co2915   1.892   1_556  S
O2896      C2904   1.270       .  A
O2896     Co2916   1.990       .  S
O2897      C2905   1.269       .  A
O2897     Co2917   2.004       .  S
O2898     Co2918   2.068       .  S
O2899      C2905   1.267       .  A
O2899     Co2916   1.994   1_556  S
O2900      C2906   1.271       .  A
O2900     Co2915   1.997       .  S
O2901      C2904   1.272       .  A
O2901     Co2918   1.999       .  S
O2902      C2903   1.294       .  A
O2902     Co2917   2.103       .  S
C2904      C3154   1.510       .  S
C2905      C3250   1.506       .  S
C2906      C3173   1.515       .  S
O2907      C2920   1.266       .  A
O2907     Co2915   2.035       .  S
O2908      C2921   1.275       .  A
O2908     Co2916   2.022   1_556  S
O2909      C2922   1.270       .  A
O2909     Co2917   1.933       .  S
O2910      C2923   1.253       .  A
O2910     Co2918   1.958       .  S
O2911      C2923   1.271       .  A
O2911     Co2916   2.032       .  S
O2912     Co2915   2.091   1_556  S
O2913     Co2918   1.952       .  S
O2914      C2921   1.277       .  A
O2914     Co2917   1.997       .  S
Co2916     O2919   2.075       .  S
Co2917     O2919   2.027   1_556  S
Co2918     O2919   2.020       .  S
C2920      C3205   1.475       .  S
C2921      C3221   1.510       .  S
C2923      C3186   1.498       .  S
N2924      C2929   1.351       .  A
N2924      C2928   1.353       .  A
N2924      H2956   1.041       .  S
N2925      C2932   1.357       .  A
N2925      C2933   1.353       .  A
N2926      C2931   1.361       .  A
N2926      C2930   1.357       .  A
N2926      H2957   1.041       .  S
N2927      C2934   1.352       .  A
N2927      C2935   1.351       .  A
C2928      C2936   1.390       .  A
C2928      C2944   1.421       .  A
C2929      C2945   1.410       .  A
C2929      C2937   1.384       .  A
C2930      C2938   1.389       .  A
C2930      C2947   1.428       .  A
C2931      C2946   1.426       .  A
C2931      C2939   1.386       .  A
C2932      C2944   1.423       .  A
C2932      C2940   1.384       .  A
C2933      C2947   1.423       .  A
C2933      C2941   1.388       .  A
C2934      C2942   1.387       .  A
C2934      C2945   1.414       .  A
C2935      C2943   1.386       .  A
C2935      C2946   1.412       .  A
C2936      C2937   1.381       .  A
C2936      H2948   1.082       .  S
C2937      H2949   1.082       .  S
C2938      C2939   1.386       .  A
C2938      H2950   1.082       .  S
C2939      H2951   1.082       .  S
C2940      C2941   1.378       .  A
C2940      H2952   1.081       .  S
C2941      H2953   1.082       .  S
C2942      C2943   1.376       .  A
C2942      H2954   1.082       .  S
C2943      H2955   1.082       .  S
C2944      C3218   1.512       .  S
C2945      C3237   1.494       .  S
C2946      C3138   1.506       .  S
C2947      C3122   1.509       .  S
N2958      C2963   1.353       .  A
N2958      C2962   1.355       .  A
N2958      H2990   1.041       .  S
N2959      C2966   1.353       .  A
N2959      C2967   1.350       .  A
N2960      C2965   1.356       .  A
N2960      C2964   1.352       .  A
N2960      H2991   1.041       .  S
N2961      C2968   1.348       .  A
N2961      C2969   1.352       .  A
C2962      C2970   1.385       .  A
C2962      C2978   1.416       .  A
C2963      C2979   1.419       .  A
C2963      C2971   1.389       .  A
C2964      C2972   1.389       .  A
C2964      C2981   1.422       .  A
C2965      C2980   1.419       .  A
C2965      C2973   1.385       .  A
C2966      C2978   1.408       .  A
C2966      C2974   1.382       .  A
C2967      C2981   1.418       .  A
C2967      C2975   1.389       .  A
C2968      C2976   1.383       .  A
C2968      C2979   1.407       .  A
C2969      C2977   1.387       .  A
C2969      C2980   1.418       .  A
C2970      C2971   1.378       .  A
C2970      H2982   1.082       .  S
C2971      H2983   1.082       .  S
C2972      C2973   1.382       .  A
C2972      H2984   1.082       .  S
C2973      H2985   1.082       .  S
C2974      C2975   1.374       .  A
C2974      H2986   1.082       .  S
C2975      H2987   1.081       .  S
C2976      C2977   1.374       .  A
C2976      H2988   1.082       .  S
C2977      H2989   1.080       .  S
C2978      C3253   1.497       .  S
C2979      C3269   1.490       .  S
C2980      C3106   1.506       .  S
C2981      C3093   1.495       .  S
O2992      C3000   1.266       .  A
O2992     Co3012   1.983       .  S
O2993      C3001   1.270       .  A
O2993     Co3013   2.036       .  S
O2994      C3002   1.270       .  A
O2995      C3003   1.245       .  A
O2995     Co3015   1.937   1_565  S
O2996      C3002   1.294       .  A
O2996     Co3013   2.107       .  S
O2997      C3003   1.278       .  A
O2997     Co3012   2.071       .  S
O2998      C3001   1.248       .  A
O2999      C3000   1.280       .  A
O2999     Co3014   2.010   1_565  S
C3000      C3365   1.507       .  S
C3001      C3090   1.483       .  S
C3002      C3349   1.498       .  S
C3003      C3125   1.487       .  S
O3004      C3017   1.261       .  A
O3004     Co3012   1.969       .  S
O3005      C3018   1.265       .  A
O3005     Co3013   1.864       .  S
O3006      C3019   1.264       .  A
O3006     Co3014   1.998   1_565  S
O3007      C3020   1.275       .  A
O3008      C3020   1.260       .  A
O3008     Co3013   1.967       .  S
O3009      C3019   1.269       .  A
O3009     Co3012   1.987       .  S
O3010      C3017   1.274       .  A
O3010     Co3015   2.038   1_565  S
O3011      C3018   1.305       .  A
Co3012     O3016   2.056   1_565  S
Co3014     O3016   2.038       .  S
Co3015     O3016   2.039       .  S
C3018      C3378   1.471       .  S
C3019      C3394   1.504       .  S
N3021      C3026   1.354       .  A
N3021      C3025   1.355       .  A
N3021      H3053   1.044       .  S
N3022      C3029   1.360       .  A
N3022      C3030   1.354       .  A
N3023      C3028   1.365       .  A
N3023      C3027   1.355       .  A
N3023      H3054   1.033       .  S
N3024      C3031   1.345       .  A
N3024      C3032   1.349       .  A
C3025      C3033   1.382       .  A
C3025      C3041   1.411       .  A
C3026      C3042   1.417       .  A
C3026      C3034   1.389       .  A
C3027      C3035   1.388       .  A
C3027      C3044   1.430       .  A
C3028      C3043   1.438       .  A
C3028      C3036   1.388       .  A
C3029      C3041   1.430       .  A
C3029      C3037   1.389       .  A
C3030      C3044   1.420       .  A
C3030      C3038   1.382       .  A
C3031      C3039   1.387       .  A
C3031      C3042   1.411       .  A
C3032      C3040   1.387       .  A
C3032      C3043   1.419       .  A
C3033      C3034   1.376       .  A
C3033      H3045   1.082       .  S
C3034      H3046   1.082       .  S
C3035      C3036   1.377       .  A
C3035      H3047   1.080       .  S
C3036      H3048   1.081       .  S
C3037      C3038   1.372       .  A
C3037      H3049   1.077       .  S
C3038      H3050   1.083       .  S
C3039      C3040   1.377       .  A
C3039      H3051   1.082       .  S
C3040      H3052   1.082       .  S
C3041      C3333   1.543       .  S
C3042      C3317   1.490       .  S
C3043      C3170   1.517       .  S
C3044      C3157   1.504       .  S
N3055      C3060   1.356       .  A
N3055      C3059   1.354       .  A
N3055      H3087   1.042       .  S
N3056      C3063   1.346       .  A
N3056      C3064   1.351       .  A
N3057      C3062   1.350       .  A
N3057      C3061   1.352       .  A
N3057      H3088   1.036       .  S
N3058      C3065   1.357       .  A
N3058      C3066   1.354       .  A
C3059      C3067   1.389       .  A
C3059      C3075   1.421       .  A
C3060      C3076   1.420       .  A
C3060      C3068   1.385       .  A
C3061      C3069   1.383       .  A
C3061      C3078   1.409       .  A
C3062      C3077   1.415       .  A
C3062      C3070   1.391       .  A
C3063      C3075   1.411       .  A
C3063      C3071   1.388       .  A
C3064      C3078   1.412       .  A
C3064      C3072   1.384       .  A
C3065      C3073   1.384       .  A
C3065      C3076   1.422       .  A
C3066      C3074   1.387       .  A
C3066      C3077   1.427       .  A
C3067      C3068   1.382       .  A
C3067      H3079   1.082       .  S
C3068      H3080   1.082       .  S
C3069      C3070   1.368       .  A
C3069      H3081   1.082       .  S
C3070      H3082   1.078       .  S
C3071      C3072   1.375       .  A
C3071      H3083   1.082       .  S
C3072      H3084   1.082       .  S
C3073      C3074   1.363       .  A
C3073      H3085   1.082       .  S
C3074      H3086   1.078       .  S
C3075      C3301   1.484       .  S
C3076      C3285   1.520       .  S
C3077      C3202   1.490       .  S
C3078      C3189   1.490       .  S
C3089      C3090   1.405       .  A
C3089      C3094   1.413       .  A
C3089      H3096   1.084       .  S
C3090      C3091   1.425       .  A
C3091      C3092   1.394       .  A
C3091      C3098   1.518       .  S
C3092      C3093   1.395       .  A
C3092      H3097   1.085       .  S
C3093      C3094   1.423       .  A
C3094      C3095   1.516       .  S
C3095      F3099   1.383       .  S
C3095      F3100   1.383       .  S
C3095      F3101   1.383       .  S
C3098      F3102   1.384       .  S
C3098      F3103   1.375       .  S
C3098      F3104   1.383       .  S
C3105      C3106   1.404       .  A
C3105      C3110   1.411       .  A
C3105      H3112   1.085       .  S
C3106      C3107   1.420       .  A
C3107      C3108   1.408       .  A
C3107      C3114   1.519       .  S
C3108      C3109   1.408       .  A
C3109      C3110   1.428       .  A
C3110      C3111   1.520       .  S
C3111      F3115   1.384       .  S
C3111      F3116   1.373       .  S
C3111      F3117   1.383       .  S
C3114      F3118   1.383       .  S
C3114      F3119   1.382       .  S
C3121      C3122   1.403       .  A
C3121      C3126   1.406       .  A
C3121      H3128   1.083       .  S
C3122      C3123   1.423       .  A
C3123      C3124   1.418       .  A
C3123      C3130   1.518       .  S
C3124      C3125   1.405       .  A
C3124      H3129   1.081       .  S
C3125      C3126   1.420       .  A
C3126      C3127   1.519       .  S
C3127      F3132   1.383       .  S
C3130      F3134   1.383       .  S
C3130      F3135   1.380       .  S
C3130      F3136   1.385       .  S
C3137      C3138   1.402       .  A
C3137      C3142   1.414       .  A
C3137      H3144   1.083       .  S
C3138      C3139   1.421       .  A
C3139      C3140   1.415       .  A
C3139      C3146   1.519       .  S
C3140      C3141   1.407       .  A
C3140      H3145   1.083   1_565  S
C3141      C3142   1.426       .  A
C3142      C3143   1.520       .  S
C3143      F3147   1.385       .  S
C3143      F3148   1.384       .  S
C3143      F3149   1.382       .  S
C3146      F3150   1.381       .  S
C3146      F3151   1.383   1_565  S
C3146      F3152   1.384   1_565  S
C3153      C3154   1.412       .  A
C3153      C3158   1.402       .  A
C3153      H3160   1.082       .  S
C3154      C3155   1.425       .  A
C3155      C3156   1.418       .  A
C3155      C3162   1.514       .  S
C3156      C3157   1.407       .  A
C3156      H3161   1.083       .  S
C3157      C3158   1.420       .  A
C3158      C3159   1.527       .  S
C3159      F3163   1.385       .  S
C3159      F3164   1.380       .  S
C3159      F3165   1.381       .  S
C3162      F3166   1.381       .  S
C3162      F3167   1.383       .  S
C3162      F3168   1.385       .  S
C3169      C3170   1.396       .  A
C3169      C3174   1.405       .  A
C3169      H3176   1.085       .  S
C3170      C3171   1.430       .  A
C3171      C3172   1.423       .  A
C3171      C3178   1.517       .  S
C3172      C3173   1.407       .  A
C3172      H3177   1.084       .  S
C3173      C3174   1.432       .  A
C3174      C3175   1.511       .  S
C3175      F3179   1.386       .  S
C3175      F3180   1.366       .  S
C3175      F3181   1.378       .  S
C3178      F3182   1.381       .  S
C3178      F3183   1.383       .  S
C3178      F3184   1.383       .  S
C3185      C3186   1.410       .  A
C3185      C3190   1.407       .  A
C3185      H3192   1.083       .  S
C3186      C3187   1.430       .  A
C3187      C3188   1.409       .  A
C3187      C3194   1.521       .  S
C3188      C3189   1.398       .  A
C3188      H3193   1.083       .  S
C3189      C3190   1.413       .  A
C3190      C3191   1.519       .  S
C3191      F3195   1.382       .  S
C3191      F3196   1.383       .  S
C3191      F3197   1.381       .  S
C3194      F3198   1.383       .  S
C3194      F3199   1.383       .  S
C3194      F3200   1.385       .  S
C3201      C3202   1.397       .  A
C3201      C3206   1.385       .  A
C3201      H3208   1.085       .  S
C3202      C3203   1.426       .  A
C3203      C3204   1.412       .  A
C3203      C3210   1.517       .  S
C3204      C3205   1.403       .  A
C3204      H3209   1.084       .  S
C3205      C3206   1.419       .  A
C3207      F3211   1.382       .  S
C3207      F3212   1.378       .  S
C3210      F3214   1.382       .  S
C3210      F3215   1.383       .  S
C3210      F3216   1.383       .  S
C3217      C3218   1.404       .  A
C3217      C3222   1.408       .  A
C3217      H3224   1.083       .  S
C3218      C3219   1.423       .  A
C3219      C3220   1.416       .  A
C3219      C3226   1.517       .  S
C3220      C3221   1.411       .  A
C3220      H3225   1.083       .  S
C3221      C3222   1.428       .  A
C3222      C3223   1.521       .  S
C3223      F3227   1.383       .  S
C3223      F3228   1.384   1_556  S
C3223      F3229   1.386       .  S
C3226      F3230   1.382       .  S
C3226      F3231   1.382       .  S
C3226      F3232   1.384       .  S
C3233      C3234   1.400       .  A
C3233      C3238   1.403       .  A
C3233      H3240   1.077       .  S
C3234      C3235   1.412       .  A
C3235      C3236   1.414       .  A
C3236      C3237   1.409       .  A
C3236      H3241   1.083       .  S
C3237      C3238   1.419       .  A
C3238      C3239   1.524       .  S
C3239      F3243   1.383       .  S
C3239      F3244   1.383       .  S
C3239      F3245   1.381       .  S
C3242      F3246   1.382       .  S
C3242      F3247   1.384       .  S
C3242      F3248   1.385       .  S
C3249      C3250   1.412       .  A
C3249      C3254   1.407       .  A
C3249      H3256   1.082       .  S
C3250      C3251   1.425       .  A
C3251      C3252   1.417       .  A
C3251      C3258   1.517       .  S
C3252      C3253   1.404       .  A
C3252      H3257   1.083       .  S
C3253      C3254   1.413       .  A
C3254      C3255   1.521       .  S
C3255      F3259   1.382       .  S
C3255      F3260   1.382       .  S
C3255      F3261   1.382       .  S
C3258      F3262   1.385       .  S
C3258      F3263   1.384       .  S
C3258      F3264   1.379       .  S
C3265      C3266   1.400       .  A
C3265      C3270   1.404       .  A
C3265      H3272   1.083       .  S
C3266      C3267   1.415       .  A
C3267      C3268   1.408       .  A
C3267      C3274   1.515       .  S
C3268      C3269   1.403       .  A
C3268      H3273   1.083       .  S
C3269      C3270   1.420       .  A
C3270      C3271   1.522       .  S
C3271      F3275   1.385       .  S
C3271      F3276   1.383       .  S
C3271      F3277   1.379       .  S
C3274      F3278   1.380       .  S
C3274      F3279   1.383       .  S
C3274      F3280   1.385       .  S
C3281      C3282   1.412       .  A
C3281      C3286   1.417       .  A
C3281      H3288   1.084       .  S
C3282      C3283   1.402       .  A
C3283      C3284   1.398       .  A
C3284      C3285   1.413       .  A
C3284      H3289   1.082       .  S
C3285      C3286   1.431       .  A
C3286      C3287   1.521       .  S
C3287      F3291   1.383       .  S
C3287      F3292   1.381       .  S
C3287      F3293   1.383       .  S
C3290      F3294   1.383       .  S
C3290      F3295   1.379       .  S
C3290      F3296   1.385       .  S
C3297      C3298   1.412       .  A
C3297      C3302   1.408       .  A
C3297      H3304   1.083       .  S
C3298      C3299   1.423       .  A
C3299      C3300   1.404       .  A
C3299      C3306   1.514       .  S
C3300      C3301   1.397       .  A
C3300      H3305   1.083       .  S
C3301      C3302   1.411       .  A
C3302      C3303   1.518       .  S
C3303      F3307   1.382       .  S
C3303      F3308   1.385       .  S
C3303      F3309   1.383       .  S
C3306      F3310   1.384       .  S
C3306      F3312   1.382       .  S
C3313      C3314   1.405       .  A
C3313      C3318   1.404       .  A
C3313      H3320   1.085       .  S
C3314      C3315   1.416       .  A
C3315      C3316   1.400       .  A
C3316      C3317   1.403       .  A
C3316      H3321   1.083       .  S
C3317      C3318   1.418       .  A
C3318      C3319   1.518       .  S
C3319      F3323   1.384       .  S
C3319      F3324   1.383       .  S
C3319      F3325   1.382       .  S
C3322      F3326   1.373       .  S
C3322      F3327   1.384       .  S
C3322      F3328   1.382       .  S
C3329      C3330   1.405       .  A
C3329      C3334   1.409       .  A
C3329      H3336   1.085       .  S
C3330      C3331   1.426       .  A
C3331      C3332   1.417       .  A
C3331      C3338   1.514       .  S
C3332      C3333   1.410       .  A
C3332      H3337   1.079       .  S
C3333      C3334   1.427       .  A
C3334      C3335   1.518       .  S
C3335      F3339   1.385       .  S
C3335      F3340   1.382       .  S
C3335      F3341   1.382       .  S
C3338      F3342   1.383       .  S
C3338      F3343   1.377       .  S
C3338      F3344   1.385       .  S
C3345      C3346   1.414       .  A
C3345      C3350   1.419       .  A
C3345      H3352   1.083       .  S
C3346      C3347   1.424       .  A
C3347      C3348   1.411       .  A
C3347      C3354   1.522       .  S
C3348      C3349   1.404       .  A
C3348      H3353   1.081       .  S
C3349      C3350   1.415       .  A
C3350      C3351   1.516       .  S
C3351      F3355   1.384       .  S
C3351      F3356   1.382       .  S
C3351      F3357   1.381       .  S
C3354      F3358   1.383       .  S
C3354      F3359   1.378       .  S
C3354      F3360   1.383       .  S
C3361      C3362   1.399       .  A
C3361      C3366   1.402       .  A
C3361      H3368   1.083       .  S
C3362      C3363   1.425       .  A
C3363      C3364   1.418       .  A
C3363      C3370   1.518       .  S
C3364      C3365   1.410       .  A
C3364      H3369   1.084       .  S
C3365      C3366   1.435       .  A
C3366      C3367   1.526       .  S
C3367      F3371   1.384       .  S
C3367      F3372   1.381       .  S
C3367      F3373   1.385       .  S
C3370      F3374   1.383       .  S
C3370      F3375   1.383       .  S
C3370      F3376   1.384       .  S
C3377      C3378   1.400       .  A
C3377      C3382   1.403       .  A
C3377      H3384   1.083       .  S
C3379      C3380   1.409       .  A
C3379      C3386   1.517       .  S
C3380      C3381   1.405       .  A
C3380      H3385   1.083       .  S
C3382      C3383   1.521       .  S
C3383      F3387   1.385       .  S
C3383      F3388   1.383       .  S
C3383      F3389   1.381       .  S
C3386      F3390   1.382       .  S
C3386      F3391   1.384       .  S
C3386      F3392   1.385       .  S
C3393      C3398   1.410       .  A
C3393      H3400   1.084       .  S
C3394      C3395   1.430       .  A
C3395      C3396   1.408       .  A
C3395      C3402   1.524       .  S
C3396      H3401   1.083       .  S
C3397      C3398   1.416       .  A
C3398      C3399   1.518       .  S
C3399      F3403   1.384       .  S
C3399      F3404   1.382       .  S
C3399      F3405   1.382       .  S
C3402      F3406   1.381       .  S
C3402      F3407   1.383       .  S
C3402      F3408   1.385       .  S
C3409      C3410   1.407       .  A
C3409      C3414   1.398       .  A
C3409      H3416   1.082       .  S
C3410      C3411   1.420       .  A
C3411      C3412   1.413       .  A
C3411      C3418   1.516       .  S
C3412      C3413   1.406       .  A
C3412      H3417   1.084   1_655  S
C3413      C3414   1.417       .  A
C3414      C3415   1.525       .  S
C3415      F3419   1.384       .  S
C3415      F3420   1.378       .  S
C3415      F3421   1.382       .  S
C3418      F3422   1.383       .  S
C3418      F3423   1.383       .  S
C3418      F3424   1.385   1_655  S
C3425      C3426   1.403       .  A
C3425      C3430   1.406       .  A
C3425      H3432   1.083       .  S
C3426      C3427   1.410       .  A
C3427      C3428   1.399       .  A
C3427      C3434   1.518       .  S
C3428      C3429   1.413       .  A
C3428      H3433   1.084       .  S
C3429      C3430   1.423       .  A
C3430      C3431   1.519       .  S
C3431      F3435   1.385       .  S
C3431      F3436   1.381       .  S
C3431      F3437   1.380       .  S
C3434      F3438   1.383   1_655  S
C3434      F3439   1.383       .  S
C3434      F3440   1.384   1_655  S
C3441      C3442   1.407       .  A
C3441      C3446   1.416       .  A
C3441      H3448   1.083       .  S
C3442      C3443   1.425       .  A
C3443      C3444   1.408       .  A
C3443      C3450   1.516       .  S
C3444      C3445   1.397       .  A
C3444      H3449   1.083       .  S
C3445      C3446   1.419       .  A
C3446      C3447   1.517       .  S
C3447      F3451   1.385       .  S
C3447      F3452   1.382       .  S
C3447      F3453   1.383       .  S
C3450      F3454   1.384       .  S
C3450      F3455   1.381       .  S
C3450      F3456   1.385       .  S
C3457      C3458   1.410       .  A
C3457      C3462   1.423       .  A
C3457      H3464   1.084       .  S
C3458      C3459   1.426       .  A
C3459      C3460   1.412       .  A
C3459      C3466   1.519       .  S
C3460      C3461   1.408       .  A
C3460      H3465   1.084       .  S
C3461      C3462   1.429       .  A
C3462      C3463   1.517       .  S
C3463      F3467   1.384       .  S
C3463      F3468   1.381       .  S
C3463      F3469   1.383       .  S
C3466      F3470   1.384   1_565  S
C3466      F3471   1.383       .  S
C3466      F3472   1.385       .  S
C3473      C3474   1.391       .  A
C3473      C3478   1.385       .  A
C3473      H3480   1.086       .  S
C3474      C3475   1.418       .  A
C3475      C3476   1.413       .  A
C3475      C3482   1.516       .  S
C3476      C3477   1.403       .  A
C3476      H3481   1.083       .  S
C3477      C3478   1.423       .  A
C3478      C3479   1.521       .  S
C3479      F3483   1.384       .  S
C3479      F3484   1.377       .  S
C3479      F3485   1.382       .  S
C3482      F3486   1.384       .  S
C3482      F3487   1.383       .  S
C3482      F3488   1.381       .  S
C3489      C3490   1.403       .  A
C3489      C3494   1.416       .  A
C3489      H3496   1.083       .  S
C3490      C3491   1.411       .  A
C3491      C3492   1.407       .  A
C3491      C3498   1.521       .  S
C3492      C3493   1.415       .  A
C3492      H3497   1.082       .  S
C3493      C3494   1.429       .  A
C3494      C3495   1.520       .  S
C3495      F3499   1.385       .  S
C3495      F3500   1.383       .  S
C3495      F3501   1.384       .  S
C3498      F3502   1.384       .  S
C3498      F3503   1.383       .  S
C3498      F3504   1.382       .  S
C3505      C3506   1.410       .  A
C3505      C3510   1.422       .  A
C3505      H3512   1.082       .  S
C3506      C3507   1.419       .  A
C3507      C3508   1.394       .  A
C3507      C3514   1.513       .  S
C3508      C3509   1.402       .  A
C3508      H3513   1.085       .  S
C3509      C3510   1.425       .  A
C3510      C3511   1.518       .  S
C3511      F3515   1.384       .  S
C3511      F3516   1.381       .  S
C3511      F3517   1.379       .  S
C3514      F3518   1.385       .  S
C3514      F3519   1.383       .  S
C3514      F3520   1.382       .  S
C3521      C3522   1.409       .  A
C3521      C3526   1.403       .  A
C3521      H3528   1.083       .  S
C3522      C3523   1.425       .  A
C3523      C3524   1.402       .  A
C3523      C3530   1.521       .  S
C3524      C3525   1.399       .  A
C3524      H3529   1.083       .  S
C3525      C3526   1.410       .  A
C3526      C3527   1.518       .  S
C3527      F3531   1.385       .  S
C3527      F3532   1.381       .  S
C3527      F3533   1.383       .  S
C3530      F3534   1.375       .  S
C3530      F3535   1.378       .  S
C3530      F3536   1.385       .  S
C3537      C3538   1.403       .  A
C3537      C3542   1.409   1_655  A
C3537      H3544   1.085   1_655  S
C3538      C3539   1.421       .  A
C3539      C3540   1.410       .  A
C3539      C3546   1.517       .  S
C3540      C3541   1.404       .  A
C3540      H3545   1.085       .  S
C3541      C3542   1.422   1_655  A
C3542      C3543   1.513       .  S
C3543      F3547   1.383       .  S
C3543      F3548   1.374       .  S
C3543      F3549   1.379       .  S
C3546      F3550   1.382       .  S
C3546      F3551   1.383       .  S
C3546      F3552   1.383       .  S
C3553      C3554   1.405       .  A
C3553      C3558   1.394       .  A
C3553      H3560   1.085       .  S
C3554      C3555   1.425       .  A
C3555      C3556   1.417       .  A
C3555      C3562   1.514       .  S
C3556      C3557   1.405       .  A
C3556      H3561   1.084       .  S
C3557      C3558   1.417       .  A
C3558      C3559   1.521       .  S
C3559      F3563   1.383       .  S
C3559      F3564   1.383       .  S
C3562      F3566   1.382       .  S
C3562      F3567   1.382       .  S
C3562      F3568   1.384       .  S
C3569      C3570   1.403       .  A
C3569      C3574   1.406       .  A
C3569      H3576   1.083       .  S
C3570      C3571   1.425       .  A
C3571      C3572   1.411       .  A
C3571      C3578   1.520       .  S
C3572      C3573   1.401       .  A
C3572      H3577   1.083       .  S
C3573      C3574   1.418       .  A
C3574      C3575   1.520       .  S
C3575      F3579   1.382       .  S
C3575      F3580   1.382       .  S
C3575      F3581   1.383       .  S
C3578      F3582   1.382       .  S
C3578      F3583   1.383       .  S
C3578      F3584   1.385       .  S
C3585      C3586   1.403       .  A
C3585      C3590   1.411       .  A
C3585      H3592   1.083       .  S
C3586      C3587   1.414       .  A
C3587      C3588   1.404       .  A
C3587      C3594   1.524       .  S
C3588      C3589   1.413       .  A
C3588      H3593   1.079       .  S
C3589      C3590   1.424       .  A
C3590      C3591   1.516       .  S
C3591      F3595   1.385       .  S
C3591      F3596   1.383       .  S
C3591      F3597   1.383       .  S
C3594      F3598   1.379       .  S
C3594      F3599   1.383       .  S
C3594      F3600   1.384       .  S
