geometry optimzed in LAMMPS
_audit_creation_date              2020-11-30 
_audit_creation_method            'lammps2cif' 
_symmetry_space_group_name_H-M    'P1' 
_symmetry_Int_Tables_number       1 
_symmetry_cell_setting            triclinic 
loop_ 
_symmetry_equiv_pos_as_xyz 
  x,y,z 
_cell_length_a                    25.41845723 
_cell_length_b                    25.414546870664697 
_cell_length_c                    25.414820999045027 
_cell_angle_alpha                 90.00302977438166 
_cell_angle_beta                  89.99813169129281 
_cell_angle_gamma                 89.99958560987588 
loop_ 
_atom_site_label 
_atom_site_type_symbol 
_atom_site_fract_x 
_atom_site_fract_y 
_atom_site_fract_z 
_atom_site_charge 
C1          C  0.16023621  0.74192657  0.95273915     0.02200
C2          C  0.10550717  0.74406322  0.95302138    -0.14000
C3          C  0.07714159  0.73748195  0.00029673    -0.00300
C4          C  0.10581979  0.73129470  0.04756349    -0.12500
C5          C  0.16064593  0.73435725  0.04777624     0.02100
C6          C  0.18740369  0.73808254  0.00015544    -0.11900
H7          H  0.08619455  0.75135020  0.91599019     0.07700
H8          H  0.08654711  0.72415278  0.08461885     0.05300
H9          H  0.23001034  0.73700703  0.99993310     0.05100
C10         C  0.33858694  0.59539898  0.04705915     0.79200
N11         N  0.33965037  0.54165906  0.04693154    -0.79100
C12         C  0.34077611  0.51442552  0.00042678     0.81700
N13         N  0.34009555  0.54172517  0.95393203    -0.79000
C14         C  0.33908847  0.59548767  0.95386626     0.81800
N15         N  0.33826991  0.62148305  0.00048471    -0.80700
C16         C  0.93502161  0.22967413  0.04743348     0.02200
C17         C  0.90821116  0.23300353  0.99986633    -0.14000
C18         C  0.93533988  0.23498316  0.95235482    -0.00300
C19         C  0.99011219  0.23719927  0.95267572    -0.12500
C20         C  0.01851981  0.23191742  0.00014551     0.02100
C21         C  0.98974810  0.22677917  0.04744626    -0.11900
H22         H  0.86562170  0.23478907  0.99986042     0.07700
H23         H  0.00940189  0.24298766  0.91544297     0.05300
H24         H  0.00858312  0.21994956  0.08476527     0.05100
C25         C  0.75631696  0.37439506  0.95337116     0.79200
N26         N  0.75727233  0.34826286  0.99992164    -0.79100
C27         C  0.75704806  0.37421168  0.04657340     0.81700
N28         N  0.75592120  0.42797363  0.04656829    -0.79000
C29         C  0.75468621  0.45531825  0.00011057     0.81800
N30         N  0.75529284  0.42813260  0.95356817    -0.80700
C31         C  0.80472250  0.93657808  0.11231284     0.02200
C32         C  0.80702852  0.93697406  0.05753303    -0.14000
C33         C  0.80041905  0.98435397  0.02922027    -0.00300
C34         C  0.79393555  0.03147930  0.05790691    -0.12500
C35         C  0.79675548  0.03159862  0.11269135     0.02100
C36         C  0.80051546  0.98396755  0.13947429    -0.11900
H37         H  0.81448663  0.90000406  0.03814108     0.07700
H38         H  0.78675967  0.06852559  0.03861865     0.05300
H39         H  0.79927899  0.98372304  0.18208439     0.05100
C40         C  0.65841584  0.03139788  0.29020353     0.79200
N41         N  0.68447524  0.98481452  0.28988311    -0.79100
C42         C  0.65846891  0.93821021  0.29090638     0.81700
N43         N  0.60472724  0.93828455  0.29209774    -0.79000
C44         C  0.57743870  0.98477757  0.29277135     0.81800
N45         N  0.60467555  0.03128428  0.29146767    -0.80700
C46         C  0.29909559  0.03236382  0.88790426     0.02200
C47         C  0.30226780  0.03223327  0.94270139    -0.14000
C48         C  0.29595125  0.98506030  0.97140029    -0.00300
C49         C  0.28926817  0.93771282  0.94311023    -0.12500
C50         C  0.29139098  0.93732519  0.88835614     0.02100
C51         C  0.29531389  0.98472036  0.86116075    -0.11900
H52         H  0.30947342  0.06928286  0.96198692     0.07700
H53         H  0.28184442  0.90074567  0.96251657     0.05300
H54         H  0.29632629  0.98447770  0.81854605     0.05100
C55         C  0.43726533  0.93840299  0.70955644     0.79200
N56         N  0.41126853  0.98500627  0.71059704    -0.79100
C57         C  0.43733704  0.03158067  0.71033587     0.81700
N58         N  0.49106663  0.03147305  0.70912685    -0.79000
C59         C  0.51829303  0.98497384  0.70779728     0.81800
N60         N  0.49100886  0.93847569  0.70839994    -0.80700
C61         C  0.93531848  0.74096777  0.04795489     0.02200
C62         C  0.99002159  0.74343638  0.04760971    -0.14000
C63         C  0.01839560  0.73723256  0.00028972    -0.00300
C64         C  0.98974419  0.73106912  0.95300037    -0.12500
C65         C  0.93489435  0.73380514  0.95279862     0.02100
C66         C  0.90813230  0.73706195  0.00049649    -0.11900
H67         H  0.00931660  0.75081763  0.08463004     0.07700
H68         H  0.00907050  0.72429281  0.91590333     0.05300
H69         H  0.86553210  0.73578631  0.00072128     0.05100
C70         C  0.75660746  0.59525137  0.04677331     0.79200
N71         N  0.75553163  0.54150171  0.04664733    -0.79100
C72         C  0.75469867  0.51424343  0.00013667     0.81700
N73         N  0.75568246  0.54150383  0.95362267    -0.79000
C74         C  0.75680203  0.59525280  0.95348052     0.81800
N75         N  0.75733514  0.62129713  0.00012693    -0.80700
C76         C  0.16080786  0.23000059  0.95293273     0.02200
C77         C  0.18762017  0.23317778  0.00056691    -0.14000
C78         C  0.16048120  0.23490831  0.04814185    -0.00300
C79         C  0.10570786  0.23707460  0.04779601    -0.12500
C80         C  0.07731650  0.23197312  0.00029501     0.02100
C81         C  0.10608204  0.22707844  0.95296014    -0.11900
H82         H  0.23020640  0.23494425  0.00058158     0.07700
H83         H  0.08639022  0.24267781  0.08504378     0.05300
H84         H  0.08722572  0.22035883  0.91563423     0.05100
C85         C  0.33843563  0.37447447  0.95385761     0.79200
N86         N  0.33829223  0.34844296  0.00051141    -0.79100
C87         C  0.33935107  0.37450400  0.04714291     0.81700
N88         N  0.34033435  0.42825671  0.04697765    -0.79000
C89         C  0.34079724  0.45550039  0.00044567     0.81800
N90         N  0.33951596  0.42822290  0.95395806    -0.80700
C91         C  0.79611376  0.93754269  0.88698949     0.02200
C92         C  0.79364147  0.93759415  0.94180352    -0.14000
C93         C  0.80021882  0.98470253  0.97050009    -0.00300
C94         C  0.80664381  0.03211957  0.94221312    -0.12500
C95         C  0.80386037  0.03264948  0.88747464     0.02100
C96         C  0.79943423  0.98526266  0.86025217    -0.11900
H97         H  0.78676597  0.90050265  0.96111492     0.07700
H98         H  0.81439260  0.06902710  0.96160600     0.05300
H99         H  0.79790514  0.98554546  0.81765275     0.05100
C100        C  0.65822928  0.03157036  0.70897582     0.79200
N101        N  0.68423807  0.98491230  0.70957730    -0.79100
C102        C  0.65815132  0.93829390  0.70919262     0.81700
N103        N  0.60441695  0.93845317  0.70836829    -0.79000
C104        C  0.57719366  0.98496939  0.70754016     0.81800
N105        N  0.60448003  0.03146998  0.70821383    -0.80700
C106        C  0.29126896  0.03293164  0.11320247     0.02200
C107        C  0.28923747  0.03257547  0.05843958    -0.14000
C108        C  0.29601572  0.98526798  0.03011207    -0.00300
C109        C  0.30253951  0.93809515  0.05875243    -0.12500
C110        C  0.29934051  0.93784415  0.11353714     0.02100
C111        C  0.29530429  0.98547936  0.14035552    -0.11900
H112        H  0.28178169  0.06953889  0.03904332     0.07700
H113        H  0.30993739  0.90111528  0.03940770     0.05300
H114        H  0.29617883  0.98568612  0.18297083     0.05100
C115        C  0.43754685  0.93805740  0.29129416     0.79200
N116        N  0.49129063  0.93822440  0.29210447    -0.79100
C117        C  0.51851551  0.98474757  0.29307917     0.81700
N118        N  0.49121251  0.03124096  0.29256284    -0.79000
C119        C  0.43745969  0.03133813  0.29181760     0.81800
N120        N  0.41145591  0.98467771  0.29107889    -0.80700
C121        C  0.99990690  0.09763410  0.75671428     0.02200
C122        C  0.00013747  0.04288743  0.75905749    -0.14000
C123        C  0.04744669  0.01441240  0.75295802    -0.00300
C124        C  0.09473652  0.04299647  0.74687993    -0.12500
C125        C  0.09500644  0.09780850  0.74965007     0.02100
C126        C  0.04739015  0.12470544  0.75295748    -0.11900
H127        H  0.96304020  0.02368039  0.76623152     0.07700
H128        H  0.13180963  0.02366538  0.74006615     0.05300
H129        H  0.04722034  0.16731585  0.75173806     0.05100
C130        C  0.00139744  0.27588947  0.61073558     0.79200
N131        N  0.00142440  0.27695085  0.55702163    -0.79100
C132        C  0.04784475  0.27765225  0.52971033     0.81700
N133        N  0.09442077  0.27653627  0.55692066    -0.79000
C134        C  0.09463185  0.27540125  0.61070019     0.81800
N135        N  0.04802749  0.27502339  0.63676449    -0.80700
C136        C  0.09516350  0.87250772  0.75683164     0.02200
C137        C  0.09483677  0.92723978  0.75923552    -0.14000
C138        C  0.04750176  0.95565186  0.75304681    -0.00300
C139        C  0.00023455  0.92700774  0.74704134    -0.12500
C140        C  0.00004645  0.87218500  0.74979514     0.02100
C141        C  0.04770927  0.84536433  0.75303265    -0.11900
H142        H  0.13188978  0.94649140  0.76651550     0.07700
H143        H  0.96312910  0.94629612  0.74028490     0.05300
H144        H  0.04792243  0.80275594  0.75175539     0.05100
C145        C  0.00099687  0.69438866  0.61067430     0.79200
N146        N  0.04752603  0.69487725  0.63688423    -0.79100
C147        C  0.09422829  0.69411231  0.61100025     0.82500
N148        N  0.09430371  0.69303550  0.55725055    -0.79000
C149        C  0.04791074  0.69223762  0.52982331     0.81800
N150        N  0.00130985  0.69326212  0.55692415    -0.80700
C151        C  0.09590342  0.87202704  0.24518956     0.02200
C152        C  0.04833020  0.84504350  0.24771059    -0.14000
C153        C  0.00073052  0.87203084  0.25006766    -0.00300
C154        C  0.00094094  0.92676043  0.25310394    -0.12500
C155        C  0.04830318  0.95536502  0.24818237     0.02100
C156        C  0.09575151  0.92680636  0.24310815    -0.11900
H157        H  0.04837930  0.80242866  0.24872554     0.07700
H158        H  0.96368314  0.94590187  0.25918667     0.05300
H159        H  0.13305384  0.94585240  0.23683430     0.05100
C160        C  0.09484610  0.69440277  0.38993294     0.79200
N161        N  0.04825628  0.69466930  0.36383163    -0.79100
C162        C  0.00161091  0.69375119  0.38982363     0.81700
N163        N  0.00166153  0.69277623  0.44356043    -0.79000
C164        C  0.04810670  0.69218627  0.47089455     0.81800
N165        N  0.09465725  0.69333227  0.44369880    -0.80700
C166        C  0.00042231  0.09743213  0.24471998     0.02200
C167        C  0.00066268  0.04266364  0.24264655    -0.14000
C168        C  0.04810421  0.01416555  0.24806532    -0.00300
C169        C  0.09541548  0.04283287  0.25312088    -0.12500
C170        C  0.09556470  0.09757147  0.24998235     0.02100
C171        C  0.04794652  0.12448790  0.24740726    -0.11900
H172        H  0.96342056  0.02357763  0.23615139     0.07700
H173        H  0.13266802  0.02373144  0.25936630     0.05300
H174        H  0.04785220  0.16710316  0.24839071     0.05100
C175        C  0.09419634  0.27608974  0.38983167     0.79200
N176        N  0.09408449  0.27715282  0.44353803    -0.79100
C177        C  0.04762906  0.27764644  0.47078726     0.81700
N178        N  0.00108997  0.27630509  0.44351267    -0.79000
C179        C  0.00096479  0.27512100  0.38972037     0.81800
N180        N  0.04760878  0.27496566  0.36373197    -0.80700
C181        C  0.30459581  0.53293721  0.38811554     0.02200
C182        C  0.30030198  0.48554510  0.36097640    -0.14000
C183        C  0.29645784  0.43793867  0.38778429    -0.00300
C184        C  0.29356567  0.43812985  0.44258989    -0.12500
C185        C  0.30014463  0.48529634  0.47124334     0.02100
C186        C  0.30687399  0.53260217  0.44288368    -0.11900
H187        H  0.29910003  0.48577228  0.31836498     0.07700
H188        H  0.28632426  0.40111284  0.46191299     0.05300
H189        H  0.31442441  0.56957183  0.46223925     0.05100
C190        C  0.15848693  0.43816528  0.21007054     0.79200
N191        N  0.18453272  0.48475871  0.21039214    -0.79100
C192        C  0.15851416  0.53136084  0.20935868     0.81700
N193        N  0.10476890  0.53126682  0.20814824    -0.79000
C194        C  0.07749265  0.48476129  0.20746549     0.81800
N195        N  0.10474775  0.43826479  0.20878467    -0.80700
O196        O  0.23985338  0.74747251  0.09264899    -0.87500
O197        O  0.18888529  0.70160169  0.38318898    -0.87600
O198        O  0.16535557  0.62532989  0.21673540    -0.89300
O199        O  0.14061475  0.79280361  0.23372003    -0.88100
O200        O  0.18808238  0.86545950  0.25873635    -0.87600
O201        O  0.24035085  0.57514805  0.21694807    -0.89000
O202        O  0.13880810  0.70233395  0.30814770    -0.87500
O203        O  0.16749051  0.72200634  0.14018112    -0.87100
Zr204      Zr  0.19560955  0.71618627  0.23125020     2.84300
O205        O  0.22688906  0.76841770  0.30060861    -1.09100
O206        O  0.26464956  0.68459343  0.17915782    -1.09800
C207        C  0.19106137  0.73439539  0.09694932     1.05600
C208        C  0.14426380  0.69926810  0.35874931     1.05600
C209        C  0.18975033  0.58069701  0.21396762     1.08600
C210        C  0.14505207  0.84184107  0.24549623     1.06400
H211        H  0.22723160  0.63522896  0.29903427     0.31900
O212        O  0.24786076  0.66356192  0.28439917    -1.30000
H213        H  0.22501994  0.80823614  0.17651624     0.31600
O214        O  0.24672126  0.78631394  0.19868454    -1.31700
O215        O  0.35628513  0.71691800  0.40797037    -0.87500
O216        O  0.40773238  0.76829399  0.11767065    -0.89000
O217        O  0.31683159  0.57766572  0.30908750    -0.87500
O218        O  0.26408781  0.86752897  0.35981034    -0.87600
O219        O  0.28650883  0.89284809  0.19261995    -0.87300
O220        O  0.33053209  0.60206483  0.14091520    -0.87100
O221        O  0.45588781  0.67623471  0.26417650    -0.87500
O222        O  0.43085779  0.84400023  0.28368145    -0.86900
O223        O  0.40823880  0.60394189  0.23863049    -0.88000
O224        O  0.35580133  0.89410318  0.28362322    -0.87200
O225        O  0.29078365  0.62499570  0.38148723    -0.87600
O226        O  0.33138295  0.67718319  0.09092690    -0.87300
O227        O  0.31069766  0.84519770  0.11988981    -0.86900
O228        O  0.26481974  0.79254965  0.41004315    -0.87300
O229        O  0.42906128  0.74139467  0.36041684    -0.87600
O230        O  0.45782917  0.76864354  0.19275879    -0.89000
Zr231      Zr  0.27981895  0.71580171  0.35317040     2.83100
Zr232      Zr  0.31668994  0.75387702  0.14760286     2.83500
Zr233      Zr  0.31707755  0.63192829  0.23193405     2.84100
Zr234      Zr  0.27908987  0.83742864  0.26881489     2.83400
Zr235      Zr  0.40111087  0.75288723  0.26937628     2.84200
O236        O  0.34835123  0.80564444  0.21691909    -1.09500
O237        O  0.34921081  0.68359963  0.30139593    -1.09000
C238        C  0.40536464  0.72820977  0.40346049     1.05600
C239        C  0.45232627  0.77135935  0.14213293     1.08200
C240        C  0.30480745  0.58211670  0.35805816     1.05800
C241        C  0.26156767  0.84314690  0.40450463     1.06200
C242        C  0.29911278  0.88854275  0.14374045     1.05700
C243        C  0.33369795  0.62655831  0.09638710     1.05300
C244        C  0.45147920  0.62751081  0.25111720     1.05700
C245        C  0.40639627  0.88862087  0.28641350     1.05200
H246        H  0.39717142  0.68649600  0.17900560     0.31900
O247        O  0.36902626  0.70089544  0.20004094    -1.30600
H248        H  0.34679977  0.80564162  0.34977316     0.31900
O249        O  0.33220556  0.78500114  0.32142465    -1.32000
C250        C  0.43503442  0.23980034  0.45287686     0.02200
C251        C  0.40818432  0.23689793  0.50046123    -0.14000
C252        C  0.43528752  0.23468200  0.54797651    -0.00300
C253        C  0.49004215  0.23196178  0.54764326    -0.12500
C254        C  0.51850136  0.23704221  0.50017906     0.02100
C255        C  0.48977949  0.24220902  0.45285748    -0.11900
H256        H  0.36558061  0.23555168  0.50047524     0.07700
H257        H  0.50928861  0.22600178  0.58486925     0.05300
H258        H  0.50866383  0.24876213  0.41551547     0.05100
C259        C  0.25759636  0.09544986  0.45400320     0.79200
N260        N  0.25776143  0.12142948  0.50064056    -0.79100
C261        C  0.25669706  0.09532587  0.54720536     0.81700
N262        N  0.25564209  0.04158843  0.54702979    -0.79000
C263        C  0.25511389  0.01438420  0.50049222     0.81800
N264        N  0.25643847  0.04169715  0.45403015    -0.80700
O265        O  0.28536854  0.07717097  0.80885667    -0.87500
O266        O  0.33100796  0.36767957  0.85978979    -0.87600
O267        O  0.40756918  0.20139687  0.88301113    -0.89300
O268        O  0.24012978  0.21863015  0.90830982    -0.88100
O269        O  0.16741367  0.24326939  0.86071093    -0.87600
O270        O  0.45762306  0.20133921  0.80792761    -0.89000
O271        O  0.33058258  0.29267128  0.90993600    -0.87500
O272        O  0.31124095  0.12475750  0.88104731    -0.87100
Zr273      Zr  0.31660962  0.21588962  0.85307151     2.84300
O274        O  0.26431942  0.28512908  0.82164684    -1.09100
O275        O  0.34811840  0.16370773  0.78407441    -1.09800
C276        C  0.29878283  0.08150986  0.85753761     1.05600
C277        C  0.33350325  0.34326647  0.90444377     1.05600
C278        C  0.45213892  0.19845249  0.85851574     1.08600
C279        C  0.19106694  0.23027854  0.90381322     1.06400
H280        H  0.39755255  0.28363079  0.82127628     0.31900
O281        O  0.36918232  0.26899058  0.80070283    -1.30000
H282        H  0.22455396  0.16107505  0.82388714     0.31600
O283        O  0.24641276  0.18322721  0.80210147    -1.31700
O284        O  0.31546980  0.39246709  0.69207409    -0.87500
O285        O  0.26429970  0.10199847  0.64117986    -0.89000
O286        O  0.45507501  0.29336827  0.73143633    -0.87500
O287        O  0.16512055  0.34431492  0.78442673    -0.87600
O288        O  0.13994592  0.17691481  0.76246706    -0.87300
O289        O  0.43063760  0.12542760  0.71818472    -0.87100
O290        O  0.35654133  0.24855204  0.59286019    -0.87500
O291        O  0.18872366  0.26796061  0.61755556    -0.86900
O292        O  0.42882279  0.22287991  0.64041559    -0.88000
O293        O  0.13857508  0.26768083  0.69258826    -0.87200
O294        O  0.40784140  0.36580129  0.75756267    -0.87600
O295        O  0.35555607  0.07541460  0.71765908    -0.87300
O296        O  0.18762889  0.10417663  0.73837967    -0.86900
O297        O  0.24009878  0.39456117  0.78372595    -0.87300
O298        O  0.29118572  0.34482237  0.61928032    -0.87600
O299        O  0.26401038  0.17707713  0.59106166    -0.89000
Zr300      Zr  0.31690712  0.33773876  0.76872108     2.83100
Zr301      Zr  0.27882267  0.13209899  0.73212642     2.83500
Zr302      Zr  0.40067942  0.21639674  0.73148812     2.84100
Zr303      Zr  0.19522268  0.25326157  0.76957145     2.83400
Zr304      Zr  0.27978073  0.25381172  0.64752644     2.84200
O305        O  0.22704859  0.20135064  0.70035476    -1.09500
O306        O  0.34906737  0.28589192  0.69935349    -1.09000
C307        C  0.30422704  0.38793022  0.64295716     1.05600
C308        C  0.26125598  0.12646408  0.59658718     1.08200
C309        C  0.45067651  0.34234114  0.74340347     1.05800
C310        C  0.18949771  0.38902268  0.78694319     1.06200
C311        C  0.14428775  0.12801131  0.74995202     1.05700
C312        C  0.40616716  0.08088624  0.71522323     1.05300
C313        C  0.40525640  0.23544119  0.59721477     1.05700
C314        C  0.14407099  0.27053697  0.64195909     1.05200
H315        H  0.34612780  0.16335471  0.65148453     0.31900
O316        O  0.33173395  0.18443236  0.67960642    -1.30600
H317        H  0.22702005  0.33416048  0.70181286     0.31900
O318        O  0.24767653  0.30584455  0.71644117    -1.32000
C319        C  0.43526439  0.72828938  0.45273634     0.02200
C320        C  0.48996306  0.72578719  0.45306817    -0.14000
C321        C  0.51834258  0.73215611  0.50035532    -0.00300
C322        C  0.48971752  0.73843936  0.54763741    -0.12500
C323        C  0.43488137  0.73572594  0.54786629     0.02100
C324        C  0.40809553  0.73232693  0.50019111    -0.11900
H325        H  0.50925417  0.71832259  0.41606038     0.07700
H326        H  0.50905101  0.74535456  0.58470392     0.05300
H327        H  0.36549622  0.73364173  0.49997420     0.05100
C328        C  0.25697555  0.87453602  0.54719803     0.79200
N329        N  0.25750384  0.84842248  0.50058960    -0.79100
C330        C  0.25684257  0.87440725  0.45391599     0.81700
N331        N  0.25585640  0.92816567  0.45398967    -0.79000
C332        C  0.25503838  0.95547414  0.50047832     0.81800
N333        N  0.25593814  0.92827136  0.54700841    -0.80700
C334        C  0.30401532  0.43725691  0.61301977     0.02200
C335        C  0.30652806  0.43771342  0.55828127    -0.14000
C336        C  0.30009769  0.48509216  0.52997478    -0.00300
C337        C  0.29375425  0.53227782  0.55865957    -0.12500
C338        C  0.29647331  0.53240368  0.61348522     0.02100
C339        C  0.29988785  0.48469048  0.64023136    -0.11900
H340        H  0.31406930  0.40076300  0.53889044     0.07700
H341        H  0.28683673  0.56935590  0.53933381     0.05300
H342        H  0.29858100  0.48444077  0.68283669     0.05100
C343        C  0.15823590  0.43846317  0.79163092     0.79200
N344        N  0.10447706  0.43857398  0.79252119    -0.79100
C345        C  0.07717779  0.48507781  0.79331253     0.81700
N346        N  0.10441547  0.53159789  0.79248806    -0.79000
C347        C  0.15815985  0.53175602  0.79154310     0.81800
N348        N  0.18424006  0.48512854  0.79103194    -0.80700
O349        O  0.23921029  0.75358743  0.90802057    -0.87500
O350        O  0.18814400  0.70176404  0.61789781    -0.87600
O351        O  0.13996771  0.79352043  0.76857807    -0.89300
O352        O  0.16485606  0.62582635  0.78410058    -0.88100
O353        O  0.23990582  0.57576105  0.78402167    -0.87600
O354        O  0.18737428  0.86611633  0.74326956    -0.89000
O355        O  0.13799129  0.70169170  0.69294105    -0.87500
O356        O  0.16666996  0.72804476  0.86067520    -0.87100
Zr357      Zr  0.19469120  0.71688400  0.76978124     2.84300
O358        O  0.24733518  0.66424424  0.71716229    -1.09100
O359        O  0.24674825  0.78606574  0.80158205    -1.09800
C360        C  0.19021135  0.74187305  0.90356065     1.05600
C361        C  0.14352880  0.69882372  0.64231404     1.05600
C362        C  0.14441217  0.84253464  0.75686655     1.08600
C363        C  0.18931223  0.58121048  0.78679372     1.06400
H364        H  0.19801613  0.78386020  0.67980655     0.31900
O365        O  0.22635528  0.76926248  0.70044927    -1.30000
H366        H  0.24899113  0.66434219  0.85033829     0.31600
O367        O  0.26356282  0.68496744  0.82196692    -1.31700
O368        O  0.35567119  0.72280153  0.59281763    -0.87500
O369        O  0.40696693  0.76872308  0.88344187    -0.89000
O370        O  0.26431702  0.86792224  0.64128149    -0.87500
O371        O  0.30956662  0.57729221  0.69267005    -0.87600
O372        O  0.33135056  0.60234845  0.85995155    -0.87300
O373        O  0.27949659  0.89257558  0.80934703    -0.87100
O374        O  0.43043068  0.84448223  0.71698952    -0.87500
O375        O  0.45524952  0.67703101  0.73809708    -0.86900
O376        O  0.35539920  0.89465876  0.71716998    -0.88000
O377        O  0.40756055  0.60442751  0.76260438    -0.87200
O378        O  0.26445903  0.79283841  0.59122452    -0.87600
O379        O  0.30498645  0.84517350  0.88187921    -0.87300
O380        O  0.33135038  0.67738767  0.91012054    -0.86900
O381        O  0.28501208  0.62500206  0.62009899    -0.87300
O382        O  0.42823707  0.74750019  0.64045377    -0.87600
O383        O  0.45694524  0.76845504  0.80832391    -0.89000
Zr384      Zr  0.27904829  0.71623784  0.64803261     2.83100
Zr385      Zr  0.31598852  0.75431291  0.85357299     2.83500
Zr386      Zr  0.27843304  0.83815787  0.73240941     2.84100
Zr387      Zr  0.31649390  0.63256731  0.76916170     2.83400
Zr388      Zr  0.40018412  0.75369008  0.73165153     2.84200
O389        O  0.36856140  0.70167974  0.80084930    -1.09500
O390        O  0.33100198  0.78542385  0.67976514    -1.09000
C391        C  0.40453543  0.73556953  0.59713176     1.05600
C392        C  0.45153912  0.77134239  0.85892989     1.08200
C393        C  0.26169405  0.84343493  0.59666773     1.05800
C394        C  0.29678062  0.58164646  0.64382111     1.06200
C395        C  0.33431593  0.62676360  0.90456028     1.05700
C396        C  0.29125404  0.88810624  0.85836141     1.05300
C397        C  0.40601313  0.88909447  0.71417330     1.05700
C398        C  0.45087344  0.62814391  0.75073178     1.05200
H399        H  0.36849355  0.83480777  0.79928957     0.31900
O400        O  0.34784755  0.80646665  0.78468930    -1.30600
H401        H  0.37114168  0.66151836  0.67696577     0.31900
O402        O  0.34924515  0.68347287  0.69892669    -1.32000
C403        C  0.79931371  0.53168876  0.38709832     0.02200
C404        C  0.80270434  0.53148465  0.44185439    -0.14000
C405        C  0.79632660  0.48435397  0.47055684    -0.00300
C406        C  0.78960926  0.43697122  0.44227579    -0.12500
C407        C  0.79144886  0.43656564  0.38748172     0.02100
C408        C  0.79526130  0.48403023  0.36030878    -0.11900
H409        H  0.81012948  0.56848884  0.46113495     0.07700
H410        H  0.78233497  0.39999694  0.46171478     0.05300
H411        H  0.79596960  0.48382141  0.31769197     0.05100
C412        C  0.93755822  0.53140772  0.20939132     0.79200
N413        N  0.91149748  0.48477250  0.20950027    -0.79100
C414        C  0.93752358  0.43812506  0.20852344     0.81700
N415        N  0.99127774  0.43824881  0.20765058    -0.79000
C416        C  0.01855815  0.48476043  0.20723480     0.81800
N417        N  0.99130493  0.53126645  0.20844000    -0.80700
C418        C  0.59584512  0.59752316  0.25530304     0.02200
C419        C  0.54828666  0.62447091  0.25239007    -0.14000
C420        C  0.50069947  0.59744982  0.25032641    -0.00300
C421        C  0.50090325  0.54270290  0.24774410    -0.12500
C422        C  0.54827764  0.51413818  0.25278900     0.02100
C423        C  0.59570220  0.54275637  0.25780057    -0.11900
H424        H  0.54832963  0.66707690  0.25097015     0.07700
H425        H  0.46362213  0.52354311  0.24190311     0.05300
H426        H  0.63299745  0.52377588  0.26429886     0.05100
C427        C  0.59489922  0.77523019  0.11071347     0.79200
N428        N  0.59468203  0.77640164  0.05695417    -0.79100
C429        C  0.54811619  0.77765660  0.02979724     0.81700
N430        N  0.50168904  0.77704008  0.05716443    -0.79000
C431        C  0.50167734  0.77595077  0.11090102     0.81800
N432        N  0.54833293  0.77496006  0.13685182    -0.80700
O433        O  0.81681023  0.89182816  0.19137409    -0.87500
O434        O  0.76394296  0.60203575  0.14089147    -0.87600
O435        O  0.85635431  0.75245734  0.09272737    -0.89300
O436        O  0.68892697  0.76791006  0.11742927    -0.88100
O437        O  0.63883135  0.76729421  0.19246094    -0.87600
O438        O  0.92908656  0.72789651  0.14029357    -0.89000
O439        O  0.76468579  0.67702504  0.09067260    -0.87500
O440        O  0.79081761  0.84448844  0.11897272    -0.87100
Zr441      Zr  0.77984459  0.75372069  0.14747716     2.84300
O442        O  0.72688815  0.70113671  0.20005440    -1.09100
O443        O  0.84925043  0.78588502  0.19922607    -1.09800
C444        C  0.80483919  0.88737767  0.14238653     1.05600
C445        C  0.76139340  0.62644110  0.09620722     1.05600
C446        C  0.90541612  0.74108904  0.09723947     1.08600
C447        C  0.64430758  0.77031446  0.14186596     1.06400
H448        H  0.84674297  0.66380331  0.15094086     0.31900
O449        O  0.83216127  0.68447519  0.17927461    -1.30000
H450        H  0.72724044  0.83431518  0.20149443     0.31600
O451        O  0.74784481  0.80599089  0.21617929    -1.31700
O452        O  0.78631691  0.57666157  0.30805335    -0.87500
O453        O  0.83055302  0.86759552  0.35957685    -0.89000
O454        O  0.93084183  0.62545575  0.21712293    -0.87500
O455        O  0.64051584  0.67678998  0.26672701    -0.87600
O456        O  0.66530033  0.84426055  0.28365981    -0.87300
O457        O  0.95589540  0.79320261  0.23634479    -0.87100
O458        O  0.90762436  0.70134373  0.38307097    -0.87500
O459        O  0.73972458  0.72227297  0.40801996    -0.86900
O460        O  0.95773890  0.70095701  0.30799186    -0.88000
O461        O  0.66742396  0.74783022  0.36043555    -0.87200
O462        O  0.85577771  0.57537030  0.21720987    -0.87600
O463        O  0.90825656  0.86554659  0.26175773    -0.87300
O464        O  0.74031620  0.89441540  0.28346879    -0.86900
O465        O  0.68802831  0.60407354  0.24195291    -0.87300
O466        O  0.81056646  0.62435154  0.38073712    -0.87600
O467        O  0.83116843  0.79252496  0.40964807    -0.89000
Zr468      Zr  0.77901990  0.63209548  0.23189671     2.83100
Zr469      Zr  0.81707389  0.83762712  0.26860106     2.83500
Zr470      Zr  0.90106365  0.71657148  0.23133445     2.84100
Zr471      Zr  0.69555979  0.75339744  0.26935227     2.83400
Zr472      Zr  0.81656899  0.71571326  0.35307598     2.84200
O473        O  0.76460966  0.78500412  0.32140345    -1.09500
O474        O  0.84825646  0.66387380  0.28381767    -1.09000
C475        C  0.79897486  0.58098955  0.35690756     1.05600
C476        C  0.83358034  0.84314471  0.40413902     1.08200
C477        C  0.90638168  0.58083679  0.21439529     1.05800
C478        C  0.64497567  0.62772677  0.25504150     1.06200
C479        C  0.68970836  0.88888249  0.28639174     1.05700
C480        C  0.95149770  0.84195653  0.24930090     1.05300
C481        C  0.95223234  0.69828720  0.35861588     1.05700
C482        C  0.69096645  0.73547047  0.40369037     1.05200
H483        H  0.89709040  0.78306104  0.32161936     0.31900
O484        O  0.86894547  0.76863937  0.30060041    -1.30600
H485        H  0.72485769  0.66136638  0.32417116     0.31900
O486        O  0.74659270  0.68325491  0.30199956    -1.32000
C487        C  0.66015907  0.72828624  0.54790594     0.02200
C488        C  0.60545625  0.72577274  0.54760901    -0.14000
C489        C  0.57707113  0.73212852  0.50032211    -0.00300
C490        C  0.60571213  0.73835982  0.45304090    -0.12500
C491        C  0.66055265  0.73566549  0.45285723     0.02100
C492        C  0.68732100  0.73232046  0.50049895    -0.11900
H493        H  0.58618120  0.71833541  0.58463317     0.07700
H494        H  0.58640591  0.74522633  0.41595184     0.05300
H495        H  0.72992019  0.73371739  0.50073159     0.05100
C496        C  0.83877425  0.87437572  0.54664837     0.79200
N497        N  0.83979579  0.92812333  0.54653543    -0.79100
C498        C  0.84054902  0.95536542  0.50002401     0.81700
N499        N  0.83949810  0.92809561  0.45353375    -0.79000
C500        C  0.83840905  0.87435591  0.45345058     0.81800
N501        N  0.83800339  0.84832505  0.50005430    -0.80700
C502        C  0.59516589  0.59747013  0.74385098     0.02200
C503        C  0.59482182  0.54275371  0.74110455    -0.14000
C504        C  0.54747547  0.51433590  0.74714500    -0.00300
C505        C  0.50021364  0.54296120  0.75326102    -0.12500
C506        C  0.50006816  0.59780325  0.75087825     0.02100
C507        C  0.54773936  0.62461353  0.74788494    -0.11900
H508        H  0.63185598  0.52350880  0.73367804     0.07700
H509        H  0.46309022  0.52363700  0.75983399     0.05300
H510        H  0.54797535  0.66721295  0.74947144     0.05100
C511        C  0.50100188  0.77614446  0.89000656     0.79200
N512        N  0.50130292  0.77702231  0.94376442    -0.79100
C513        C  0.54790209  0.77783912  0.97087189     0.81700
N514        N  0.59429296  0.77705087  0.94344416    -0.79000
C515        C  0.59422107  0.77622153  0.88969316     0.81800
N516        N  0.54752876  0.77568862  0.86380185    -0.80700
C517        C  0.79946345  0.43759820  0.61283461     0.02200
C518        C  0.80262358  0.43763317  0.55804953    -0.14000
C519        C  0.79634535  0.48473749  0.52928106    -0.00300
C520        C  0.78972034  0.53215617  0.55751849    -0.12500
C521        C  0.79182647  0.53263340  0.61228967     0.02100
C522        C  0.79577076  0.48527040  0.63953657    -0.11900
H523        H  0.80974615  0.40054124  0.53882244     0.07700
H524        H  0.78229530  0.56909968  0.53807322     0.05300
H525        H  0.79678247  0.48554570  0.68215209     0.05100
C526        C  0.93718755  0.53163842  0.79123976     0.79200
N527        N  0.99093775  0.53156700  0.79246280    -0.79100
C528        C  0.01823753  0.48506875  0.79308295     0.81700
N529        N  0.99100069  0.43856437  0.79169523    -0.79000
C530        C  0.93726122  0.43844395  0.79042191     0.81800
N531        N  0.91119464  0.48502583  0.79015744    -0.80700
O532        O  0.85563815  0.74692923  0.90789161    -0.87500
O533        O  0.90692025  0.70167226  0.61722172    -0.87600
O534        O  0.93032286  0.62557440  0.78365074    -0.89300
O535        O  0.95516244  0.79302084  0.76272612    -0.88100
O536        O  0.90751354  0.86557099  0.73800295    -0.87600
O537        O  0.85530832  0.57537843  0.78359248    -0.89000
O538        O  0.95689185  0.70198417  0.69233819    -0.87500
O539        O  0.92820987  0.72240595  0.86017363    -0.87100
Zr540      Zr  0.90007078  0.71639126  0.76901332     2.84300
O541        O  0.86845279  0.76836002  0.69978045    -1.09100
O542        O  0.83092845  0.68458039  0.82089575    -1.09800
C543        C  0.90451357  0.73417212  0.90353872     1.05600
C544        C  0.95150394  0.69914499  0.64173235     1.05600
C545        C  0.90592169  0.58095412  0.78655687     1.08600
C546        C  0.95081681  0.84187671  0.74998257     1.06400
H547        H  0.86844345  0.63529289  0.70137081     0.31900
O548        O  0.84775952  0.66360990  0.71596399    -1.30000
H549        H  0.87100999  0.80854830  0.82373502     0.31600
O550        O  0.84912658  0.78659141  0.80176338    -1.31700
O551        O  0.73908790  0.71652129  0.59262874    -0.87500
O552        O  0.68809589  0.76832904  0.88279100    -0.89000
O553        O  0.77970612  0.57742860  0.69127718    -0.87500
O554        O  0.83113225  0.86761639  0.64058968    -0.87600
O555        O  0.80928452  0.89271273  0.80785724    -0.87300
O556        O  0.76424712  0.60201486  0.85937850    -0.87100
O557        O  0.63993576  0.67645822  0.73212754    -0.87500
O558        O  0.66480971  0.84424476  0.71664542    -0.86900
O559        O  0.68734717  0.60385795  0.75742925    -0.88000
O560        O  0.73987163  0.89429638  0.71664526    -0.87200
O561        O  0.80511255  0.62485542  0.61873197    -0.87600
O562        O  0.76429371  0.67705502  0.90949654    -0.87300
O563        O  0.78479148  0.84497224  0.88044013    -0.86900
O564        O  0.83104344  0.79256253  0.59044856    -0.87300
O565        O  0.66656418  0.74213278  0.63997835    -0.87600
O566        O  0.63793821  0.76853380  0.80774890    -0.89000
Zr567      Zr  0.81585703  0.71573203  0.64708270     2.83100
Zr568      Zr  0.77897176  0.75370583  0.85267462     2.83500
Zr569      Zr  0.77836374  0.63186374  0.76824460     2.84100
Zr570      Zr  0.81640733  0.83745113  0.73144960     2.83400
Zr571      Zr  0.69458074  0.75315396  0.73090315     2.84200
O572        O  0.74730870  0.80569733  0.78349912    -1.09500
O573        O  0.74661851  0.68395700  0.69907951    -1.09000
C574        C  0.69010852  0.72831059  0.59708694     1.05600
C575        C  0.64349366  0.77139286  0.85837429     1.08200
C576        C  0.79150662  0.58189021  0.64226305     1.05800
C577        C  0.83402315  0.84317510  0.59598370     1.06200
C578        C  0.79647026  0.88833214  0.85668546     1.05700
C579        C  0.76156491  0.62644703  0.90402318     1.05300
C580        C  0.64439289  0.62744272  0.74383757     1.05700
C581        C  0.68928126  0.88885041  0.71392618     1.05200
H582        H  0.69790536  0.68616163  0.82086907     0.31900
O583        O  0.72625097  0.70074664  0.80022391    -1.30600
H584        H  0.74883275  0.80571164  0.65034225     0.31900
O585        O  0.76342333  0.78507644  0.67869585    -1.32000
C586        C  0.50048333  0.37200412  0.25544193     0.02200
C587        C  0.54802129  0.34499275  0.25264198    -0.14000
C588        C  0.59563752  0.37195408  0.25054674    -0.00300
C589        C  0.59549186  0.42671432  0.24790212    -0.12500
C590        C  0.54813680  0.45532821  0.25286470     0.02100
C591        C  0.50069143  0.42675979  0.25791169    -0.11900
H592        H  0.54794435  0.30238585  0.25128230     0.07700
H593        H  0.63278570  0.44585415  0.24205741     0.05300
H594        H  0.46341497  0.44576947  0.26441775     0.05100
C595        C  0.59418169  0.19325338  0.11057964     0.79200
N596        N  0.54757845  0.19438856  0.13665668    -0.79100
C597        C  0.50094417  0.19431394  0.11064208     0.81700
N598        N  0.50109756  0.19321038  0.05685101    -0.79000
C599        C  0.54764872  0.19185138  0.02959913     0.81800
N600        N  0.59409193  0.19226038  0.05687032    -0.80700
O601        O  0.85577232  0.21783958  0.09194108    -0.87500
O602        O  0.90690593  0.26775773  0.38273118    -0.87600
O603        O  0.93069026  0.34398643  0.21552442    -0.89300
O604        O  0.95567041  0.17663775  0.23353979    -0.88100
O605        O  0.90814206  0.10375452  0.25773733    -0.87600
O606        O  0.85570481  0.39418378  0.21619711    -0.89000
O607        O  0.95710454  0.26690435  0.30774445    -0.87500
O608        O  0.92822081  0.24350450  0.13941575    -0.87100
Zr609      Zr  0.90049292  0.25302888  0.23048447     2.84300
O610        O  0.86910167  0.20089749  0.29987155    -1.09100
O611        O  0.83146896  0.28467889  0.17823400    -1.09800
C612        C  0.90472260  0.22995562  0.09643545     1.05600
C613        C  0.95158045  0.27008008  0.35837294     1.05600
C614        C  0.90629873  0.38867389  0.21301356     1.08600
C615        C  0.95122266  0.12752238  0.24492914     1.06400
H616        H  0.86878980  0.33388872  0.29833218     0.31900
O617        O  0.84816284  0.30554687  0.28371042    -1.30000
H618        H  0.87081639  0.16095359  0.17614687     0.31600
O619        O  0.84914023  0.18307589  0.19813396    -1.31700
O620        O  0.73939340  0.24806421  0.40734916    -0.87500
O621        O  0.68813341  0.20075258  0.11708423    -0.89000
O622        O  0.77967001  0.39173063  0.30836046    -0.87500
O623        O  0.83216729  0.10180389  0.35906873    -0.87600
O624        O  0.80990757  0.07646578  0.19171946    -0.87300
O625        O  0.76509061  0.36731743  0.14042750    -0.87100
O626        O  0.64045257  0.29307535  0.26418811    -0.87500
O627        O  0.66512713  0.12525198  0.28217395    -0.86900
O628        O  0.68799123  0.36533808  0.23835673    -0.88000
O629        O  0.74022888  0.07523633  0.28273680    -0.87200
O630        O  0.80465548  0.34424504  0.38101384    -0.87600
O631        O  0.76482572  0.29227458  0.09031074    -0.87300
O632        O  0.78477255  0.12404170  0.11927089    -0.86900
O633        O  0.83176244  0.17685982  0.40921767    -0.87300
O634        O  0.66682000  0.22358283  0.35961219    -0.87600
O635        O  0.63816783  0.20045720  0.19222637    -0.89000
Zr636      Zr  0.81602330  0.25340321  0.35252554     2.83100
Zr637      Zr  0.77915204  0.21530268  0.14694076     2.83500
Zr638      Zr  0.77904502  0.33727223  0.23129333     2.84100
Zr639      Zr  0.81713164  0.13173122  0.26800165     2.83400
Zr640      Zr  0.69508294  0.21617969  0.26851227     2.84200
O641        O  0.74770703  0.16329038  0.21609803    -1.09500
O642        O  0.74655089  0.28577289  0.30089067    -1.09000
C643        C  0.69052947  0.23557564  0.40293289     1.05600
C644        C  0.64358720  0.19772957  0.14163000     1.08200
C645        C  0.79120592  0.38726307  0.35744816     1.05800
C646        C  0.83481539  0.12627142  0.40372378     1.06200
C647        C  0.79688111  0.08078054  0.14295933     1.05700
C648        C  0.76214053  0.34290158  0.09584387     1.05300
C649        C  0.64481956  0.34181237  0.25111708     1.05700
C650        C  0.68960509  0.08071395  0.28522297     1.05200
H651        H  0.69878739  0.28279917  0.17836898     0.31900
O652        O  0.72698027  0.26838864  0.19933327    -1.30600
H653        H  0.74969317  0.16311759  0.34850129     0.31900
O654        O  0.76409212  0.18414936  0.32035102    -1.32000
C655        C  0.49986624  0.37238972  0.74323670     0.02200
C656        C  0.54732706  0.34530700  0.74724123    -0.14000
C657        C  0.59494304  0.37218567  0.75069458    -0.00300
C658        C  0.59467612  0.42700048  0.75339768    -0.12500
C659        C  0.54741836  0.45558608  0.74707638     0.02100
C660        C  0.50012859  0.42712982  0.74075014    -0.11900
H661        H  0.54713702  0.30269970  0.74856472     0.07700
H662        H  0.63171777  0.44634281  0.76036766     0.05300
H663        H  0.46307420  0.44635719  0.73338366     0.05100
C664        C  0.50146696  0.19373177  0.88963874     0.79200
N665        N  0.50147550  0.19263385  0.94335280    -0.79100
C666        C  0.54788555  0.19189704  0.97067886     0.81700
N667        N  0.59446886  0.19302949  0.94348596    -0.79000
C668        C  0.59469164  0.19419501  0.88970997     0.81800
N669        N  0.54810180  0.19459140  0.86362828    -0.80700
C670        C  0.66075166  0.23989104  0.54747832     0.02200
C671        C  0.68761284  0.23707662  0.49983962    -0.14000
C672        C  0.66051391  0.23487569  0.45225730    -0.00300
C673        C  0.60576106  0.23212541  0.45260650    -0.12500
C674        C  0.57730161  0.23708207  0.50008568     0.02100
C675        C  0.60600041  0.24220253  0.54743453    -0.11900
H676        H  0.73021444  0.23582978  0.49983929     0.07700
H677        H  0.58650282  0.22619607  0.41537960     0.05300
H678        H  0.58707425  0.24867683  0.58476572     0.05100
C679        C  0.83920559  0.09518191  0.45322302     0.79200
N680        N  0.84023448  0.04144718  0.45343403    -0.79100
C681        C  0.84054168  0.01426499  0.49998342     0.81700
N682        N  0.83907715  0.04158235  0.54644879    -0.79000
C683        C  0.83794555  0.09533252  0.54650383     0.81800
N684        N  0.83793974  0.12130571  0.49982113    -0.80700
O685        O  0.85657643  0.22133460  0.90750579    -0.87500
O686        O  0.90747539  0.26829741  0.61736690    -0.87600
O687        O  0.95510913  0.17664469  0.76867800    -0.89300
O688        O  0.93055120  0.34457765  0.78232099    -0.88100
O689        O  0.85545661  0.39456749  0.78305196    -0.87600
O690        O  0.90786777  0.10422244  0.74253424    -0.89000
O691        O  0.95753080  0.26854926  0.69244629    -0.87500
O692        O  0.92886814  0.24697227  0.85994311    -0.87100
Zr693      Zr  0.90062923  0.25356748  0.76891849     2.84300
O694        O  0.84798942  0.30621753  0.71639511    -1.09100
O695        O  0.84907623  0.18401562  0.80107369    -1.09800
C696        C  0.90530192  0.23438883  0.90313695     1.05600
C697        C  0.95205022  0.27128723  0.64185285     1.05600
C698        C  0.95071941  0.12768912  0.75662750     1.08600
C699        C  0.90607871  0.38911627  0.78542987     1.06400
H700        H  0.89742763  0.18632012  0.67910148     0.31900
O701        O  0.86908957  0.20096165  0.69971759    -1.30000
H702        H  0.84609471  0.30654043  0.84902920     0.31600
O703        O  0.83171120  0.28548141  0.82089019    -1.31700
O704        O  0.74001795  0.25149585  0.59214621    -0.87500
O705        O  0.68875879  0.20176583  0.88287940    -0.89000
O706        O  0.83067135  0.10221233  0.64058707    -0.87500
O707        O  0.78544026  0.39283498  0.69182993    -0.87600
O708        O  0.76412121  0.36779822  0.85941895    -0.87300
O709        O  0.81540665  0.07745633  0.80841044    -0.87100
O710        O  0.66509116  0.12568741  0.71608119    -0.87500
O711        O  0.63988679  0.29305395  0.73803011    -0.86900
O712        O  0.74006882  0.07543138  0.71673042    -0.88000
O713        O  0.68755266  0.36578273  0.76216965    -0.87200
O714        O  0.83010482  0.17720054  0.59041409    -0.87600
O715        O  0.79113966  0.12508924  0.88122265    -0.87300
O716        O  0.76384680  0.29268507  0.90947963    -0.86900
O717        O  0.81136461  0.34522209  0.61966452    -0.87300
O718        O  0.66737090  0.22663053  0.63972443    -0.87600
O719        O  0.63860112  0.20208875  0.80785513    -0.89000
Zr720      Zr  0.81649041  0.25402855  0.64738133     2.83100
Zr721      Zr  0.77978008  0.21607015  0.85292073     2.83500
Zr722      Zr  0.81687300  0.13219034  0.73170646     2.84100
Zr723      Zr  0.77875291  0.33782919  0.76844705     2.83400
Zr724      Zr  0.69518008  0.21671447  0.73089392     2.84200
O725        O  0.72699193  0.26855496  0.80016914    -1.09500
O726        O  0.76423980  0.18479504  0.67882189    -1.09000
C727        C  0.69098691  0.23972073  0.59662544     1.05600
C728        C  0.64411444  0.19915813  0.85847302     1.08200
C729        C  0.83303493  0.12659774  0.59590907     1.05800
C730        C  0.79896329  0.38847754  0.64318632     1.06200
C731        C  0.76102861  0.34329509  0.90398598     1.05700
C732        C  0.80414973  0.08198286  0.85753705     1.05300
C733        C  0.68947451  0.08098811  0.71356362     1.05700
C734        C  0.64421845  0.34195947  0.75054302     1.05200
H735        H  0.72701439  0.13579076  0.79861653     0.31900
O736        O  0.74766374  0.16410788  0.78398306    -1.30600
H737        H  0.72448675  0.30893317  0.67663059     0.31900
O738        O  0.74634286  0.28676327  0.69840036    -1.32000
O739        O  0.23932571  0.22158878  0.09301961    -0.87500
O740        O  0.18815062  0.26855581  0.38333004    -0.87600
O741        O  0.14040381  0.17644247  0.23621858    -0.89300
O742        O  0.16519513  0.34431858  0.21825799    -0.88100
O743        O  0.24030236  0.39432877  0.21754841    -0.87600
O744        O  0.18790875  0.10423772  0.26226601    -0.89000
O745        O  0.13817376  0.26897248  0.30819806    -0.87500
O746        O  0.16677496  0.24610390  0.14079111    -0.87100
Zr747      Zr  0.19506227  0.25333888  0.23189705     2.84300
O748        O  0.24772549  0.30622467  0.28427537    -1.09100
O749        O  0.24650558  0.18372534  0.19952851    -1.09800
C750        C  0.19047984  0.23414415  0.09745728     1.05600
C751        C  0.14360169  0.27161784  0.35879413     1.05600
C752        C  0.14474787  0.12773160  0.24940812     1.08600
C753        C  0.18967818  0.38885178  0.21511140     1.06400
H754        H  0.19878829  0.18673311  0.32209875     0.31900
O755        O  0.22695820  0.20115193  0.30111070    -1.30000
H756        H  0.24967640  0.30641626  0.15190848     0.31600
O757        O  0.26406780  0.28536992  0.18005172    -1.31700
O758        O  0.35584756  0.25182741  0.40834308    -0.87500
O759        O  0.40686089  0.20170155  0.11762476    -0.89000
O760        O  0.26538928  0.10227282  0.36012803    -0.87500
O761        O  0.30976972  0.39301932  0.30875133    -0.87600
O762        O  0.33214343  0.36775264  0.14129051    -0.87300
O763        O  0.27946520  0.07773564  0.19226433    -0.87100
O764        O  0.43061491  0.12545438  0.28471452    -0.87500
O765        O  0.45574690  0.29277405  0.26657191    -0.86900
O766        O  0.35562238  0.07526823  0.28414554    -0.88000
O767        O  0.40820969  0.36566806  0.24240949    -0.87200
O768        O  0.26522929  0.17734020  0.41019802    -0.87600
O769        O  0.30449453  0.12520496  0.11960061    -0.87300
O770        O  0.33174474  0.29272051  0.09110259    -0.86900
O771        O  0.28457871  0.34546797  0.38119436    -0.87300
O772        O  0.42821390  0.22589071  0.36089584    -0.87600
O773        O  0.45708096  0.20251923  0.19259461    -0.89000
Zr774      Zr  0.27919880  0.25423945  0.35342735     2.83100
Zr775      Zr  0.31595402  0.21611719  0.14782822     2.83500
Zr776      Zr  0.27899898  0.13226450  0.26918514     2.84100
Zr777      Zr  0.31714048  0.33779499  0.23236713     2.83400
Zr778      Zr  0.40047890  0.21644716  0.26982157     2.84200
O779        O  0.36904424  0.26858794  0.20046990    -1.09500
O780        O  0.33149332  0.18484810  0.32214421    -1.09000
C781        C  0.40475662  0.23956404  0.40386283     1.05600
C782        C  0.45154590  0.19935872  0.14197302     1.08200
C783        C  0.26257659  0.12671480  0.40470661     1.05800
C784        C  0.29666972  0.38873017  0.35750993     1.06200
C785        C  0.33482458  0.34332234  0.09661684     1.05700
C786        C  0.29102005  0.08220737  0.14319525     1.05300
C787        C  0.40621968  0.08077230  0.28727506     1.05700
C788        C  0.45129908  0.34188804  0.25516674     1.05200
H789        H  0.36867136  0.13560093  0.20203424     0.31900
O790        O  0.34806753  0.16395900  0.21665937    -1.30600
H791        H  0.37089813  0.30857825  0.32416885     0.31900
O792        O  0.34919731  0.28645234  0.30221024    -1.32000
loop_ 
_geom_bond_atom_site_label_1 
_geom_bond_atom_site_label_2 
_geom_bond_distance 
_geom_bond_site_symmetry_2 
_ccdc_geom_bond_type 
C1            C2   1.392       .  A
C1            C6   1.392   1_556  A
C1          C360   1.464       .  S
C2            C3   1.411   1_556  A
C2            H7   1.078       .  S
C3            C4   1.414       .  A
C3           C63   1.493       .  S
C4            C5   1.396       .  A
C4            H8   1.077       .  S
C5            C6   1.392       .  A
C5          C207   1.470       .  S
C6            H9   1.083   1_554  S
C10         C243   1.488       .  S
C10          N11   1.366       .  A
C10          N15   1.357       .  A
N11          C12   1.370       .  A
C12          C89   1.498       .  S
C12          N13   1.370   1_554  A
N13          C14   1.367       .  A
C14         C395   1.489       .  S
C14          N15   1.357   1_556  A
C16          C17   1.390   1_554  A
C16          C21   1.393       .  A
C16         C612   1.464       .  S
C17          C18   1.391       .  A
C17          H22   1.084       .  S
C18          C19   1.393       .  A
C18         C696   1.466       .  S
C19          C20   1.412   1_656  A
C19          H23   1.076   1_655  S
C20          C21   1.413   1_455  A
C20          C80   1.495       .  S
C21          H24   1.077   1_655  S
C25         C731   1.488       .  S
C25          N26   1.357       .  A
C25          N30   1.366       .  A
N26          C27   1.357   1_556  A
C27         C648   1.489       .  S
C27          N28   1.367       .  A
N28          C29   1.370       .  A
C29          C72   1.498       .  S
C29          N30   1.370   1_554  A
C31          C32   1.393       .  A
C31          C36   1.392       .  A
C31         C444   1.466       .  S
C32          C33   1.413       .  A
C32          H37   1.078       .  S
C33          C34   1.412   1_565  A
C33          C93   1.492   1_554  S
C34          C35   1.394       .  A
C34          H38   1.077       .  S
C35          C36   1.392   1_545  A
C35         C647   1.468       .  S
C36          H39   1.083       .  S
C40         C650   1.488       .  S
C40          N41   1.357   1_545  A
C40          N45   1.366       .  A
N41          C42   1.357       .  A
C42         C479   1.488       .  S
C42          N43   1.366       .  A
N43          C44   1.370       .  A
C44         C117   1.498       .  S
C44          N45   1.370   1_565  A
C46          C47   1.395       .  A
C46          C51   1.392   1_545  A
C46         C276   1.468       .  S
C47          C48   1.413   1_545  A
C47          H52   1.077       .  S
C48          C49   1.412       .  A
C48         C108   1.492   1_556  S
C49          C50   1.393       .  A
C49          H53   1.078       .  S
C50          C51   1.392       .  A
C50         C396   1.465       .  S
C51          H54   1.083       .  S
C55         C397   1.488       .  S
C55          N56   1.357       .  A
C55          N60   1.366       .  A
N56          C57   1.357   1_565  A
C57         C312   1.488       .  S
C57          N58   1.366       .  A
N58          C59   1.370   1_545  A
C59         C104   1.497       .  S
C59          N60   1.370       .  A
C61          C62   1.392       .  A
C61          C66   1.394       .  A
C61         C446   1.465       .  S
C62          C63   1.411   1_655  A
C62          H67   1.077   1_655  S
C63          C64   1.414   1_454  A
C64          C65   1.396       .  A
C64          H68   1.077   1_655  S
C65          C66   1.392   1_556  A
C65         C543   1.471       .  S
C66          H69   1.083       .  S
C70         C445   1.490       .  S
C70          N71   1.366       .  A
C70          N75   1.358       .  A
N71          C72   1.370       .  A
C72          N73   1.370   1_554  A
N73          C74   1.366       .  A
C74         C579   1.491       .  S
C74          N75   1.358   1_556  A
C76          C77   1.392   1_556  A
C76          C81   1.393       .  A
C76         C279   1.466       .  S
C77          C78   1.393       .  A
C77          H82   1.083       .  S
C78          C79   1.393       .  A
C78         C750   1.467       .  S
C79          C80   1.412       .  A
C79          H83   1.076       .  S
C80          C81   1.413   1_554  A
C81          H84   1.076       .  S
C85         C277   1.491       .  S
C85          N86   1.358   1_556  A
C85          N90   1.366       .  A
N86          C87   1.358       .  A
C87         C785   1.491       .  S
C87          N88   1.366       .  A
N88          C89   1.370       .  A
C89          N90   1.370   1_554  A
C91          C92   1.395       .  A
C91          C96   1.393       .  A
C91         C578   1.469       .  S
C92          C93   1.412       .  A
C92          H97   1.077       .  S
C93          C94   1.413   1_565  A
C94          C95   1.393       .  A
C94          H98   1.078       .  S
C95          C96   1.393   1_545  A
C95         C732   1.467       .  S
C96          H99   1.083       .  S
C100        C733   1.491       .  S
C100        N101   1.358   1_545  A
C100        N105   1.366       .  A
N101        C102   1.358       .  A
C102        C581   1.490       .  S
C102        N103   1.366       .  A
N103        C104   1.370       .  A
C104        N105   1.370   1_565  A
C106        C107   1.393       .  A
C106        C111   1.393   1_545  A
C106        C786   1.466       .  S
C107        C108   1.412   1_545  A
C107        H112   1.078       .  S
C108        C109   1.412       .  A
C109        C110   1.395       .  A
C109        H113   1.077       .  S
C110        C111   1.393       .  A
C110        C242   1.469       .  S
C111        H114   1.083       .  S
C115        C245   1.490       .  S
C115        N116   1.366       .  A
C115        N120   1.358       .  A
N116        C117   1.370       .  A
C117        N118   1.370   1_565  A
N118        C119   1.366       .  A
C119        C787   1.491       .  S
C119        N120   1.358   1_545  A
C121        C122   1.393   1_655  A
C121        C126   1.393   1_655  A
C121        C698   1.465       .  S
C122        C123   1.412       .  A
C122        H127   1.077   1_455  S
C123        C124   1.413       .  A
C123        C138   1.493   1_545  S
C124        C125   1.395       .  A
C124        H128   1.077       .  S
C125        C126   1.393       .  A
C125        C311   1.469       .  S
C126        H129   1.083       .  S
C130        C697   1.487   1_455  S
C130        N131   1.365       .  A
C130        N135   1.358       .  A
N131        C132   1.369       .  A
C132        C177   1.498       .  S
C132        N133   1.371       .  A
N133        C134   1.367       .  A
C134        C314   1.492       .  S
C134        N135   1.357       .  A
C136        C137   1.392       .  A
C136        C141   1.393       .  A
C136        C362   1.465       .  S
C137        C138   1.412       .  A
C137        H142   1.077       .  S
C138        C139   1.413       .  A
C139        C140   1.395       .  A
C139        H143   1.077   1_455  S
C140        C141   1.393       .  A
C140        C546   1.469   1_455  S
C141        H144   1.083       .  S
C145        C544   1.490   1_455  S
C145        N146   1.357       .  A
C145        N150   1.366       .  A
N146        C147   1.357       .  A
C147        C361   1.489       .  S
C147        N148   1.366       .  A
N148        C149   1.370       .  A
C149        C164   1.498       .  S
C149        N150   1.370       .  A
C151        C152   1.392       .  A
C151        C156   1.393       .  A
C151        C210   1.466       .  S
C152        C153   1.392       .  A
C152        H157   1.083       .  S
C153        C154   1.393       .  A
C153        C480   1.467   1_455  S
C154        C155   1.412       .  A
C154        H158   1.076   1_455  S
C155        C156   1.413       .  A
C155        C168   1.494   1_565  S
C156        H159   1.076       .  S
C160        C208   1.490       .  S
C160        N161   1.357       .  A
C160        N165   1.367       .  A
N161        C162   1.357       .  A
C162        C481   1.489   1_455  S
C162        N163   1.366       .  A
N163        C164   1.370       .  A
C164        N165   1.371       .  A
C166        C167   1.393       .  A
C166        C171   1.392       .  A
C166        C615   1.466   1_455  S
C167        C168   1.413       .  A
C167        H172   1.076   1_455  S
C168        C169   1.412       .  A
C169        C170   1.393       .  A
C169        H173   1.076       .  S
C170        C171   1.392       .  A
C170        C752   1.467       .  S
C171        H174   1.083       .  S
C175        C751   1.487       .  S
C175        N176   1.365       .  A
C175        N180   1.358       .  A
N176        C177   1.369       .  A
C177        N178   1.372       .  A
N178        C179   1.367       .  A
C179        C613   1.492   1_455  S
C179        N180   1.357       .  A
C181        C182   1.392       .  A
C181        C186   1.393       .  A
C181        C240   1.465       .  S
C182        C183   1.392       .  A
C182        H187   1.083       .  S
C183        C184   1.395       .  A
C183        C784   1.468       .  S
C184        C185   1.412       .  A
C184        H188   1.077       .  S
C185        C186   1.412       .  A
C185        C336   1.493       .  S
C186        H189   1.078       .  S
C190        C753   1.489       .  S
C190        N191   1.357       .  A
C190        N195   1.366       .  A
N191        C192   1.357       .  A
C192        C209   1.489       .  S
C192        N193   1.366       .  A
N193        C194   1.370       .  A
C194        C416   1.498       .  S
C194        N195   1.370       .  A
O196       Zr232   2.407       .  S
O196        C207   1.289       .  A
O197       Zr231   2.461       .  S
O197        C208   1.295       .  A
O198       Zr204   2.462       .  S
O198        C209   1.295       .  A
O199       Zr204   2.398       .  S
O199        C210   1.287       .  A
O200       Zr234   2.434       .  S
O200        C210   1.292       .  A
O201       Zr233   2.456       .  S
O201        C209   1.296       .  A
O202       Zr204   2.455       .  S
O202        C208   1.296       .  A
O203       Zr204   2.427       .  S
O203        C207   1.290       .  A
Zr204       O205   2.345       .  S
Zr204       O206   2.340       .  S
Zr204       O214   2.356       .  S
Zr204       O212   2.319       .  S
O205       Zr231   2.320       .  S
O205       Zr234   2.343       .  S
O206       Zr232   2.344       .  S
O206       Zr233   2.317       .  S
H211        O212   0.965       .  S
O212       Zr231   2.340       .  S
O212       Zr233   2.349       .  S
H213        O214   0.965       .  S
O214       Zr232   2.351       .  S
O214       Zr234   2.354       .  S
O215       Zr231   2.391       .  S
O215        C238   1.285       .  A
O216       Zr232   2.463       .  S
O216        C239   1.295       .  A
O217       Zr233   2.397       .  S
O217        C240   1.287       .  A
O218       Zr234   2.465       .  S
O218        C241   1.296       .  A
O219       Zr234   2.402       .  S
O219        C242   1.288       .  A
O220       Zr233   2.458       .  S
O220        C243   1.294       .  A
O221       Zr235   2.398       .  S
O221        C244   1.287       .  A
O222       Zr235   2.463       .  S
O222        C245   1.295       .  A
O223       Zr233   2.430       .  S
O223        C244   1.291       .  A
O224       Zr234   2.453       .  S
O224        C245   1.296       .  A
O225       Zr231   2.433       .  S
O225        C240   1.292       .  A
O226       Zr232   2.452       .  S
O226        C243   1.295       .  A
O227       Zr232   2.430       .  S
O227        C242   1.291       .  A
O228       Zr231   2.457       .  S
O228        C241   1.296       .  A
O229       Zr235   2.438       .  S
O229        C238   1.293       .  A
O230       Zr235   2.456       .  S
O230        C239   1.296       .  A
Zr231       O237   2.348       .  S
Zr231       O249   2.349       .  S
Zr232       O236   2.341       .  S
Zr232       O247   2.315       .  S
Zr233       O237   2.347       .  S
Zr233       O247   2.339       .  S
Zr234       O236   2.343       .  S
Zr234       O249   2.321       .  S
Zr235       O236   2.318       .  S
Zr235       O237   2.346       .  S
Zr235       O249   2.342       .  S
Zr235       O247   2.349       .  S
C238        C319   1.465       .  S
C239        C431   1.489       .  S
C241        C330   1.491       .  S
C244        C420   1.466       .  S
H246        O247   0.965       .  S
H248        O249   0.965       .  S
C250        C251   1.391       .  A
C250        C255   1.393       .  A
C250        C781   1.464       .  S
C251        C252   1.391       .  A
C251        H256   1.083       .  S
C252        C253   1.394       .  A
C252        C313   1.466       .  S
C253        C254   1.412       .  A
C253        H257   1.076       .  S
C254        C255   1.413       .  A
C254        C674   1.495       .  S
C255        H258   1.076       .  S
C259        C783   1.489       .  S
C259        N260   1.357       .  A
C259        N264   1.366       .  A
N260        C261   1.357       .  A
C261        C308   1.488       .  S
C261        N262   1.366       .  A
N262        C263   1.370       .  A
C263        C332   1.497   1_545  S
C263        N264   1.370       .  A
O265       Zr301   2.404       .  S
O265        C276   1.288       .  A
O266       Zr300   2.463       .  S
O266        C277   1.295       .  A
O267       Zr273   2.462       .  S
O267        C278   1.295       .  A
O268       Zr273   2.399       .  S
O268        C279   1.287       .  A
O269       Zr303   2.435       .  S
O269        C279   1.292       .  A
O270       Zr302   2.453       .  S
O270        C278   1.295       .  A
O271       Zr273   2.454       .  S
O271        C277   1.296       .  A
O272       Zr273   2.427       .  S
O272        C276   1.290       .  A
Zr273       O274   2.345       .  S
Zr273       O275   2.340       .  S
Zr273       O283   2.356       .  S
Zr273       O281   2.319       .  S
O274       Zr300   2.320       .  S
O274       Zr303   2.344       .  S
O275       Zr301   2.343       .  S
O275       Zr302   2.316       .  S
C278        C664   1.487       .  S
H280        O281   0.965       .  S
O281       Zr300   2.341       .  S
O281       Zr302   2.350       .  S
H282        O283   0.966       .  S
O283       Zr301   2.351       .  S
O283       Zr303   2.355       .  S
O284       Zr300   2.394       .  S
O284        C307   1.286       .  A
O285       Zr301   2.462       .  S
O285        C308   1.295       .  A
O286       Zr302   2.396       .  S
O286        C309   1.286       .  A
O287       Zr303   2.466       .  S
O287        C310   1.296       .  A
O288       Zr303   2.402       .  S
O288        C311   1.288       .  A
O289       Zr302   2.457       .  S
O289        C312   1.294       .  A
O290       Zr304   2.399       .  S
O290        C313   1.287       .  A
O291       Zr304   2.463       .  S
O291        C314   1.295       .  A
O292       Zr302   2.428       .  S
O292        C313   1.291       .  A
O293       Zr303   2.457       .  S
O293        C314   1.296       .  A
O294       Zr300   2.436       .  S
O294        C309   1.292       .  A
O295       Zr301   2.452       .  S
O295        C312   1.295       .  A
O296       Zr301   2.429       .  S
O296        C311   1.291       .  A
O297       Zr300   2.458       .  S
O297        C310   1.296       .  A
O298       Zr304   2.439       .  S
O298        C307   1.293       .  A
O299       Zr304   2.454       .  S
O299        C308   1.296       .  A
Zr300       O306   2.348       .  S
Zr300       O318   2.349       .  S
Zr301       O305   2.341       .  S
Zr301       O316   2.315       .  S
Zr302       O306   2.347       .  S
Zr302       O316   2.339       .  S
Zr303       O305   2.343       .  S
Zr303       O318   2.321       .  S
Zr304       O305   2.319       .  S
Zr304       O306   2.346       .  S
Zr304       O318   2.341       .  S
Zr304       O316   2.349       .  S
C307        C334   1.466       .  S
C309        C655   1.465       .  S
C310        C343   1.491       .  S
H315        O316   0.965       .  S
H317        O318   0.965       .  S
C319        C320   1.392       .  A
C319        C324   1.394       .  A
C320        C321   1.411       .  A
C320        H325   1.078       .  S
C321        C322   1.414       .  A
C321        C489   1.493       .  S
C322        C323   1.396       .  A
C322        H326   1.077       .  S
C323        C324   1.393       .  A
C323        C391   1.471       .  S
C324        H327   1.083       .  S
C328        C393   1.490       .  S
C328        N329   1.358       .  A
C328        N333   1.366       .  A
N329        C330   1.358       .  A
C330        N331   1.366       .  A
N331        C332   1.370       .  A
C332        N333   1.370       .  A
C334        C335   1.393       .  A
C334        C339   1.394       .  A
C335        C336   1.412       .  A
C335        H340   1.078       .  S
C336        C337   1.413       .  A
C337        C338   1.395       .  A
C337        H341   1.077       .  S
C338        C339   1.393       .  A
C338        C394   1.470       .  S
C339        H342   1.083       .  S
C343        N344   1.367       .  A
C343        N348   1.358       .  A
N344        C345   1.371       .  A
C345        C528   1.498       .  S
C345        N346   1.370       .  A
N346        C347   1.366       .  A
C347        C363   1.490       .  S
C347        N348   1.358       .  A
O349       Zr385   2.392       .  S
O349        C360   1.286       .  A
O350       Zr384   2.462       .  S
O350        C361   1.295       .  A
O351       Zr357   2.394       .  S
O351        C362   1.286       .  A
O352       Zr357   2.462       .  S
O352        C363   1.295       .  A
O353       Zr387   2.453       .  S
O353        C363   1.295       .  A
O354       Zr386   2.437       .  S
O354        C362   1.293       .  A
O355       Zr357   2.458       .  S
O355        C361   1.296       .  A
O356       Zr357   2.434       .  S
O356        C360   1.292       .  A
Zr357       O358   2.317       .  S
Zr357       O359   2.344       .  S
Zr357       O367   2.341       .  S
Zr357       O365   2.350       .  S
O358       Zr384   2.342       .  S
O358       Zr387   2.342       .  S
O359       Zr385   2.344       .  S
O359       Zr386   2.344       .  S
H364        O365   0.965       .  S
O365       Zr384   2.320       .  S
O365       Zr386   2.340       .  S
H366        O367   0.965       .  S
O367       Zr385   2.351       .  S
O367       Zr387   2.320       .  S
O368       Zr384   2.406       .  S
O368        C391   1.288       .  A
O369       Zr385   2.461       .  S
O369        C392   1.295       .  A
O370       Zr386   2.463       .  S
O370        C393   1.295       .  A
O371       Zr387   2.405       .  S
O371        C394   1.288       .  A
O372       Zr387   2.461       .  S
O372        C395   1.295       .  A
O373       Zr386   2.395       .  S
O373        C396   1.286       .  A
O374       Zr388   2.461       .  S
O374        C397   1.295       .  A
O375       Zr388   2.405       .  S
O375        C398   1.288       .  A
O376       Zr386   2.458       .  S
O376        C397   1.297       .  A
O377       Zr387   2.428       .  S
O377        C398   1.291       .  A
O378       Zr384   2.452       .  S
O378        C393   1.295       .  A
O379       Zr385   2.435       .  S
O379        C396   1.292       .  A
O380       Zr385   2.458       .  S
O380        C395   1.297       .  A
O381       Zr384   2.430       .  S
O381        C394   1.291       .  A
O382       Zr388   2.430       .  S
O382        C391   1.291       .  A
O383       Zr388   2.453       .  S
O383        C392   1.296       .  A
Zr384       O390   2.342       .  S
Zr384       O402   2.356       .  S
Zr385       O389   2.317       .  S
Zr385       O400   2.340       .  S
Zr386       O390   2.318       .  S
Zr386       O400   2.351       .  S
Zr387       O389   2.342       .  S
Zr387       O402   2.357       .  S
Zr388       O389   2.342       .  S
Zr388       O390   2.341       .  S
Zr388       O402   2.356       .  S
Zr388       O400   2.321       .  S
C392        C511   1.490       .  S
C398        C506   1.469       .  S
H399        O400   0.965       .  S
H401        O402   0.966       .  S
C403        C404   1.394       .  A
C403        C408   1.393       .  A
C403        C475   1.469       .  S
C404        C405   1.412       .  A
C404        H409   1.077       .  S
C405        C406   1.413       .  A
C405        C519   1.492       .  S
C406        C407   1.393       .  A
C406        H410   1.078       .  S
C407        C408   1.393       .  A
C407        C645   1.467       .  S
C408        H411   1.083       .  S
C412        C477   1.491       .  S
C412        N413   1.358       .  A
C412        N417   1.366       .  A
N413        C414   1.358       .  A
C414        C614   1.491       .  S
C414        N415   1.367       .  A
N415        C416   1.370   1_655  A
C416        N417   1.370   1_455  A
C418        C419   1.391       .  A
C418        C423   1.393       .  A
C418        C478   1.466       .  S
C419        C420   1.392       .  A
C419        H424   1.083       .  S
C420        C421   1.393       .  A
C421        C422   1.412       .  A
C421        H425   1.076       .  S
C422        C423   1.414       .  A
C422        C590   1.495       .  S
C423        H426   1.076       .  S
C427        C447   1.490       .  S
C427        N428   1.367       .  A
C427        N432   1.357       .  A
N428        C429   1.371       .  A
C429        C513   1.498   1_554  S
C429        N430   1.370       .  A
N430        C431   1.366       .  A
C431        N432   1.357       .  A
O433       Zr469   2.398       .  S
O433        C444   1.287       .  A
O434       Zr468   2.466       .  S
O434        C445   1.296       .  A
O435       Zr441   2.391       .  S
O435        C446   1.285       .  A
O436       Zr441   2.460       .  S
O436        C447   1.294       .  A
O437       Zr471   2.454       .  S
O437        C447   1.296       .  A
O438       Zr470   2.438       .  S
O438        C446   1.293       .  A
O439       Zr441   2.456       .  S
O439        C445   1.296       .  A
O440       Zr441   2.434       .  S
O440        C444   1.292       .  A
Zr441       O442   2.320       .  S
Zr441       O443   2.347       .  S
Zr441       O451   2.340       .  S
Zr441       O449   2.349       .  S
O442       Zr468   2.343       .  S
O442       Zr471   2.345       .  S
O443       Zr469   2.347       .  S
O443       Zr470   2.346       .  S
H448        O449   0.965       .  S
O449       Zr468   2.321       .  S
O449       Zr470   2.342       .  S
H450        O451   0.965       .  S
O451       Zr469   2.349       .  S
O451       Zr471   2.319       .  S
O452       Zr468   2.401       .  S
O452        C475   1.287       .  A
O453       Zr469   2.458       .  S
O453        C476   1.294       .  A
O454       Zr470   2.463       .  S
O454        C477   1.295       .  A
O455       Zr471   2.398       .  S
O455        C478   1.287       .  A
O456       Zr471   2.461       .  S
O456        C479   1.295       .  A
O457       Zr470   2.398       .  S
O457        C480   1.287       .  A
O458       Zr472   2.464       .  S
O458        C481   1.295       .  A
O459       Zr472   2.407       .  S
O459        C482   1.289       .  A
O460       Zr470   2.455       .  S
O460        C481   1.296       .  A
O461       Zr471   2.427       .  S
O461        C482   1.290       .  A
O462       Zr468   2.454       .  S
O462        C477   1.296       .  A
O463       Zr469   2.430       .  S
O463        C480   1.291       .  A
O464       Zr469   2.456       .  S
O464        C479   1.296       .  A
O465       Zr468   2.433       .  S
O465        C478   1.292       .  A
O466       Zr472   2.431       .  S
O466        C475   1.292       .  A
O467       Zr472   2.453       .  S
O467        C476   1.296       .  A
Zr468       O474   2.343       .  S
Zr468       O486   2.355       .  S
Zr469       O473   2.317       .  S
Zr469       O484   2.340       .  S
Zr470       O474   2.318       .  S
Zr470       O484   2.349       .  S
Zr471       O473   2.340       .  S
Zr471       O486   2.356       .  S
Zr472       O473   2.344       .  S
Zr472       O474   2.341       .  S
Zr472       O486   2.351       .  S
Zr472       O484   2.315       .  S
C476        C500   1.488       .  S
C482        C491   1.469       .  S
H483        O484   0.965       .  S
H485        O486   0.966       .  S
C487        C488   1.392       .  A
C487        C492   1.392       .  A
C487        C574   1.464       .  S
C488        C489   1.411       .  A
C488        H493   1.078       .  S
C489        C490   1.414       .  A
C490        C491   1.396       .  A
C490        H494   1.077       .  S
C491        C492   1.392       .  A
C492        H495   1.083       .  S
C496        C577   1.488       .  S
C496        N497   1.366       .  A
C496        N501   1.357       .  A
N497        C498   1.370       .  A
C498        C681   1.497   1_565  S
C498        N499   1.370       .  A
N499        C500   1.366       .  A
C500        N501   1.357       .  A
C502        C503   1.392       .  A
C502        C507   1.393       .  A
C502        C580   1.465       .  S
C503        C504   1.412       .  A
C503        H508   1.077       .  S
C504        C505   1.413       .  A
C504        C659   1.493       .  S
C505        C506   1.395       .  A
C505        H509   1.077       .  S
C506        C507   1.392       .  A
C507        H510   1.083       .  S
C511        N512   1.366       .  A
C511        N516   1.357       .  A
N512        C513   1.370       .  A
C513        N514   1.370       .  A
N514        C515   1.366       .  A
C515        C575   1.489       .  S
C515        N516   1.357       .  A
C517        C518   1.395       .  A
C517        C522   1.392       .  A
C517        C730   1.468       .  S
C518        C519   1.412       .  A
C518        H523   1.077       .  S
C519        C520   1.413       .  A
C520        C521   1.393       .  A
C520        H524   1.078       .  S
C521        C522   1.392       .  A
C521        C576   1.465       .  S
C522        H525   1.083       .  S
C526        C545   1.489       .  S
C526        N527   1.367       .  A
C526        N531   1.357       .  A
N527        C528   1.370   1_655  A
C528        N529   1.370   1_455  A
N529        C530   1.366       .  A
C530        C699   1.489       .  S
C530        N531   1.357       .  A
O532       Zr568   2.408       .  S
O532        C543   1.289       .  A
O533       Zr567   2.462       .  S
O533        C544   1.295       .  A
O534       Zr540   2.461       .  S
O534        C545   1.295       .  A
O535       Zr540   2.404       .  S
O535        C546   1.288       .  A
O536       Zr570   2.429       .  S
O536        C546   1.291       .  A
O537       Zr569   2.457       .  S
O537        C545   1.296       .  A
O538       Zr540   2.453       .  S
O538        C544   1.295       .  A
O539       Zr540   2.430       .  S
O539        C543   1.291       .  A
Zr540       O541   2.342       .  S
Zr540       O542   2.341       .  S
Zr540       O550   2.356       .  S
Zr540       O548   2.321       .  S
O541       Zr567   2.317       .  S
O541       Zr570   2.341       .  S
O542       Zr568   2.341       .  S
O542       Zr569   2.317       .  S
H547        O548   0.965       .  S
O548       Zr567   2.340       .  S
O548       Zr569   2.351       .  S
H549        O550   0.966       .  S
O550       Zr568   2.356       .  S
O550       Zr570   2.357       .  S
O551       Zr567   2.392       .  S
O551        C574   1.286       .  A
O552       Zr568   2.462       .  S
O552        C575   1.295       .  A
O553       Zr569   2.396       .  S
O553        C576   1.286       .  A
O554       Zr570   2.462       .  S
O554        C577   1.295       .  A
O555       Zr570   2.403       .  S
O555        C578   1.288       .  A
O556       Zr569   2.464       .  S
O556        C579   1.295       .  A
O557       Zr571   2.394       .  S
O557        C580   1.286       .  A
O558       Zr571   2.462       .  S
O558        C581   1.295       .  A
O559       Zr569   2.436       .  S
O559        C580   1.293       .  A
O560       Zr570   2.452       .  S
O560        C581   1.295       .  A
O561       Zr567   2.435       .  S
O561        C576   1.292       .  A
O562       Zr568   2.454       .  S
O562        C579   1.296       .  A
O563       Zr568   2.429       .  S
O563        C578   1.291       .  A
O564       Zr567   2.456       .  S
O564        C577   1.296       .  A
O565       Zr571   2.434       .  S
O565        C574   1.292       .  A
O566       Zr571   2.458       .  S
O566        C575   1.296       .  A
Zr567       O573   2.344       .  S
Zr567       O585   2.351       .  S
Zr568       O572   2.342       .  S
Zr568       O583   2.320       .  S
Zr569       O573   2.344       .  S
Zr569       O583   2.341       .  S
Zr570       O572   2.342       .  S
Zr570       O585   2.320       .  S
Zr571       O572   2.317       .  S
Zr571       O573   2.344       .  S
Zr571       O585   2.341       .  S
Zr571       O583   2.351       .  S
H582        O583   0.965       .  S
H584        O585   0.965       .  S
C586        C587   1.392       .  A
C586        C591   1.393       .  A
C586        C788   1.466       .  S
C587        C588   1.392       .  A
C587        H592   1.083       .  S
C588        C589   1.393       .  A
C588        C649   1.466       .  S
C589        C590   1.412       .  A
C589        H593   1.076       .  S
C590        C591   1.414       .  A
C591        H594   1.076       .  S
C595        C644   1.488       .  S
C595        N596   1.358       .  A
C595        N600   1.365       .  A
N596        C597   1.357       .  A
C597        C782   1.492       .  S
C597        N598   1.367       .  A
N598        C599   1.371       .  A
C599        C666   1.497   1_554  S
C599        N600   1.369       .  A
O601       Zr637   2.398       .  S
O601        C612   1.287       .  A
O602       Zr636   2.462       .  S
O602        C613   1.295       .  A
O603       Zr609   2.465       .  S
O603        C614   1.295       .  A
O604       Zr609   2.396       .  S
O604        C615   1.286       .  A
O605       Zr639   2.434       .  S
O605        C615   1.292       .  A
O606       Zr638   2.457       .  S
O606        C614   1.296       .  A
O607       Zr609   2.460       .  S
O607        C613   1.297       .  A
O608       Zr609   2.431       .  S
O608        C612   1.292       .  A
Zr609       O610   2.346       .  S
Zr609       O611   2.343       .  S
Zr609       O619   2.354       .  S
Zr609       O617   2.320       .  S
O610       Zr636   2.322       .  S
O610       Zr639   2.343       .  S
O611       Zr637   2.347       .  S
O611       Zr638   2.320       .  S
H616        O617   0.965       .  S
O617       Zr636   2.341       .  S
O617       Zr638   2.348       .  S
H618        O619   0.965       .  S
O619       Zr637   2.351       .  S
O619       Zr639   2.349       .  S
O620       Zr636   2.399       .  S
O620        C643   1.287       .  A
O621       Zr637   2.463       .  S
O621        C644   1.295       .  A
O622       Zr638   2.398       .  S
O622        C645   1.287       .  A
O623       Zr639   2.466       .  S
O623        C646   1.296       .  A
O624       Zr639   2.401       .  S
O624        C647   1.287       .  A
O625       Zr638   2.458       .  S
O625        C648   1.294       .  A
O626       Zr640   2.400       .  S
O626        C649   1.287       .  A
O627       Zr640   2.458       .  S
O627        C650   1.294       .  A
O628       Zr638   2.428       .  S
O628        C649   1.291       .  A
O629       Zr639   2.454       .  S
O629        C650   1.296       .  A
O630       Zr636   2.437       .  S
O630        C645   1.293       .  A
O631       Zr637   2.456       .  S
O631        C648   1.296       .  A
O632       Zr637   2.428       .  S
O632        C647   1.291       .  A
O633       Zr636   2.454       .  S
O633        C646   1.296       .  A
O634       Zr640   2.431       .  S
O634        C643   1.292       .  A
O635       Zr640   2.452       .  S
O635        C644   1.295       .  A
Zr636       O642   2.349       .  S
Zr636       O654   2.347       .  S
Zr637       O641   2.340       .  S
Zr637       O652   2.313       .  S
Zr638       O642   2.350       .  S
Zr638       O652   2.340       .  S
Zr639       O641   2.345       .  S
Zr639       O654   2.316       .  S
Zr640       O641   2.317       .  S
Zr640       O642   2.349       .  S
Zr640       O654   2.340       .  S
Zr640       O652   2.347       .  S
C643        C672   1.468       .  S
C646        C679   1.490       .  S
H651        O652   0.965       .  S
H653        O654   0.965       .  S
C655        C656   1.393       .  A
C655        C660   1.393       .  A
C656        C657   1.393       .  A
C656        H661   1.083       .  S
C657        C658   1.395       .  A
C657        C734   1.469       .  S
C658        C659   1.413       .  A
C658        H662   1.077       .  S
C659        C660   1.412       .  A
C660        H663   1.077       .  S
C664        N665   1.365       .  A
C664        N669   1.357       .  A
N665        C666   1.369       .  A
C666        N667   1.371       .  A
N667        C668   1.367       .  A
C668        C728   1.491       .  S
C668        N669   1.357       .  A
C670        C671   1.392       .  A
C670        C675   1.393       .  A
C670        C727   1.467       .  S
C671        C672   1.393       .  A
C671        H676   1.083       .  S
C672        C673   1.394       .  A
C673        C674   1.413       .  A
C673        H677   1.076       .  S
C674        C675   1.413       .  A
C675        H678   1.076       .  S
C679        N680   1.366       .  A
C679        N684   1.358       .  A
N680        C681   1.370       .  A
C681        N682   1.370       .  A
N682        C683   1.366       .  A
C683        C729   1.491       .  S
C683        N684   1.358       .  A
O685       Zr721   2.399       .  S
O685        C696   1.287       .  A
O686       Zr720   2.462       .  S
O686        C697   1.295       .  A
O687       Zr693   2.396       .  S
O687        C698   1.286       .  A
O688       Zr693   2.459       .  S
O688        C699   1.294       .  A
O689       Zr723   2.453       .  S
O689        C699   1.296       .  A
O690       Zr722   2.435       .  S
O690        C698   1.292       .  A
O691       Zr693   2.452       .  S
O691        C697   1.295       .  A
O692       Zr693   2.428       .  S
O692        C696   1.291       .  A
Zr693       O694   2.316       .  S
Zr693       O695   2.347       .  S
Zr693       O703   2.339       .  S
Zr693       O701   2.350       .  S
O694       Zr720   2.340       .  S
O694       Zr723   2.344       .  S
O695       Zr721   2.346       .  S
O695       Zr722   2.348       .  S
H700        O701   0.965       .  S
O701       Zr720   2.319       .  S
O701       Zr722   2.340       .  S
H702        O703   0.965       .  S
O703       Zr721   2.349       .  S
O703       Zr723   2.315       .  S
O704       Zr720   2.399       .  S
O704        C727   1.287       .  A
O705       Zr721   2.463       .  S
O705        C728   1.295       .  A
O706       Zr722   2.463       .  S
O706        C729   1.295       .  A
O707       Zr723   2.403       .  S
O707        C730   1.288       .  A
O708       Zr723   2.462       .  S
O708        C731   1.295       .  A
O709       Zr722   2.395       .  S
O709        C732   1.286       .  A
O710       Zr724   2.465       .  S
O710        C733   1.296       .  A
O711       Zr724   2.403       .  S
O711        C734   1.288       .  A
O712       Zr722   2.457       .  S
O712        C733   1.296       .  A
O713       Zr723   2.430       .  S
O713        C734   1.291       .  A
O714       Zr720   2.455       .  S
O714        C729   1.296       .  A
O715       Zr721   2.439       .  S
O715        C732   1.293       .  A
O716       Zr721   2.454       .  S
O716        C731   1.296       .  A
O717       Zr720   2.426       .  S
O717        C730   1.290       .  A
O718       Zr724   2.436       .  S
O718        C727   1.293       .  A
O719       Zr724   2.456       .  S
O719        C728   1.296       .  A
Zr720       O726   2.345       .  S
Zr720       O738   2.356       .  S
Zr721       O725   2.319       .  S
Zr721       O736   2.341       .  S
Zr722       O726   2.320       .  S
Zr722       O736   2.349       .  S
Zr723       O725   2.341       .  S
Zr723       O738   2.352       .  S
Zr724       O725   2.343       .  S
Zr724       O726   2.343       .  S
Zr724       O738   2.354       .  S
Zr724       O736   2.321       .  S
H735        O736   0.965       .  S
H737        O738   0.966       .  S
O739       Zr775   2.399       .  S
O739        C750   1.287       .  A
O740       Zr774   2.463       .  S
O740        C751   1.295       .  A
O741       Zr747   2.400       .  S
O741        C752   1.287       .  A
O742       Zr747   2.458       .  S
O742        C753   1.294       .  A
O743       Zr777   2.454       .  S
O743        C753   1.296       .  A
O744       Zr776   2.429       .  S
O744        C752   1.291       .  A
O745       Zr747   2.451       .  S
O745        C751   1.295       .  A
O746       Zr747   2.431       .  S
O746        C750   1.292       .  A
Zr747       O748   2.317       .  S
Zr747       O749   2.349       .  S
Zr747       O757   2.340       .  S
Zr747       O755   2.348       .  S
O748       Zr774   2.340       .  S
O748       Zr777   2.345       .  S
O749       Zr775   2.350       .  S
O749       Zr776   2.351       .  S
H754        O755   0.965       .  S
O755       Zr774   2.313       .  S
O755       Zr776   2.339       .  S
H756        O757   0.965       .  S
O757       Zr775   2.347       .  S
O757       Zr777   2.316       .  S
O758       Zr774   2.397       .  S
O758        C781   1.287       .  A
O759       Zr775   2.462       .  S
O759        C782   1.295       .  A
O760       Zr776   2.458       .  S
O760        C783   1.294       .  A
O761       Zr777   2.403       .  S
O761        C784   1.288       .  A
O762       Zr777   2.466       .  S
O762        C785   1.296       .  A
O763       Zr776   2.396       .  S
O763        C786   1.286       .  A
O764       Zr778   2.465       .  S
O764        C787   1.295       .  A
O765       Zr778   2.397       .  S
O765        C788   1.286       .  A
O766       Zr776   2.457       .  S
O766        C787   1.296       .  A
O767       Zr777   2.434       .  S
O767        C788   1.292       .  A
O768       Zr774   2.455       .  S
O768        C783   1.296       .  A
O769       Zr775   2.437       .  S
O769        C786   1.293       .  A
O770       Zr775   2.456       .  S
O770        C785   1.296       .  A
O771       Zr774   2.427       .  S
O771        C784   1.291       .  A
O772       Zr778   2.431       .  S
O772        C781   1.292       .  A
O773       Zr778   2.459       .  S
O773        C782   1.297       .  A
Zr774       O780   2.347       .  S
Zr774       O792   2.352       .  S
Zr775       O779   2.321       .  S
Zr775       O790   2.342       .  S
Zr776       O780   2.319       .  S
Zr776       O790   2.348       .  S
Zr777       O779   2.343       .  S
Zr777       O792   2.349       .  S
Zr778       O779   2.345       .  S
Zr778       O780   2.343       .  S
Zr778       O792   2.354       .  S
Zr778       O790   2.319       .  S
H789        O790   0.965       .  S
H791        O792   0.965       .  S
