geometry optimzed in LAMMPS
_audit_creation_date              2020-11-30 
_audit_creation_method            'lammps2cif' 
_symmetry_space_group_name_H-M    'P1' 
_symmetry_Int_Tables_number       1 
_symmetry_cell_setting            triclinic 
loop_ 
_symmetry_equiv_pos_as_xyz 
  x,y,z 
_cell_length_a                    38.41781988599355 
_cell_length_b                    38.45453513389075 
_cell_length_c                    49.041737890797386 
_cell_angle_alpha                 89.77424505383111 
_cell_angle_beta                  90.23995166216508 
_cell_angle_gamma                 120.29356819041249 
loop_ 
_atom_site_label 
_atom_site_type_symbol 
_atom_site_fract_x 
_atom_site_fract_y 
_atom_site_fract_z 
_atom_site_charge 
C1          C  0.29351662  0.50071593  0.71456527     0.03020
C2          C  0.33089318  0.01743731  0.70115846    -0.13130
C3          C  0.36508525  0.05122229  0.71157447     0.00520
C4          C  0.36169699  0.07112133  0.73386528    -0.11650
C5          C  0.32710015  0.05335857  0.74965845     0.03010
C6          C  0.29203236  0.01849383  0.73968590    -0.11070
H7          H  0.33449674  0.50235988  0.68371184     0.08610
H8          H  0.38780951  0.09911177  0.74035991     0.06140
H9          H  0.26480713  0.00453365  0.75180783     0.05990
C10         C  0.09218496  0.13342351  0.66850199     0.03020
C11         C  0.05487006  0.11920916  0.68158570    -0.13130
C12         C  0.01944581  0.08722788  0.67084730     0.00520
C13         C  0.02117359  0.06614865  0.64867068    -0.11650
C14         C  0.05601788  0.08137348  0.63328981     0.03010
C15         C  0.09234626  0.11479706  0.64345517    -0.11070
H16         H  0.05244395  0.13524443  0.69890474     0.08610
H17         H  0.99388125  0.03936659  0.64202962     0.06140
H18         H  0.11969328  0.12714265  0.63150491     0.05990
C19         C  0.27980163  0.47041593  0.83403847     0.03020
C20         C  0.30183664  0.45549420  0.84776754    -0.13130
C21         C  0.30673538  0.42519517  0.83638878     0.00520
C22         C  0.28834054  0.40745753  0.81204231    -0.11650
C23         C  0.26603423  0.42070867  0.79753660     0.03010
C24         C  0.26146663  0.45248360  0.80857613    -0.11070
H25         H  0.31815532  0.46937120  0.86640113     0.08610
H26         H  0.29286569  0.38378989  0.80398373     0.06140
H27         H  0.24536381  0.46405212  0.79707049     0.05990
C28         C  0.44559929  0.33649059  0.87897681     0.03020
C29         C  0.42667377  0.35295611  0.86320907    -0.13130
C30         C  0.42035479  0.38284816  0.87376621     0.00520
C31         C  0.43502279  0.39921579  0.89916831    -0.11650
C32         C  0.45464063  0.38473544  0.91534509     0.03010
C33         C  0.46015839  0.35310825  0.90528060    -0.11070
H34         H  0.41298320  0.34002605  0.84370823     0.08610
H35         H  0.42948335  0.42248113  0.90671707     0.06140
H36         H  0.47380425  0.34038340  0.91825533     0.05990
C37         C  0.44466513  0.30213095  0.50049514     0.03020
C38         C  0.46552256  0.28641478  0.51485284    -0.13130
C39         C  0.47021705  0.25575584  0.50382801     0.00520
C40         C  0.45283445  0.23875225  0.47904314    -0.11650
C41         C  0.43146963  0.25267050  0.46410658     0.03010
C42         C  0.42706014  0.28459292  0.47486508    -0.11070
H43         H  0.98116320  0.29995230  0.53374764     0.08610
H44         H  0.45745700  0.21517202  0.47094649     0.06140
H45         H  0.41183013  0.29672233  0.46294121     0.05990
C46         C  0.11132497  0.16947408  0.54503197     0.03020
C47         C  0.09269813  0.18637735  0.52938824    -0.13130
C48         C  0.08737889  0.21703686  0.53981992     0.00520
C49         C  0.10226968  0.23318576  0.56529650    -0.11650
C50         C  0.12156367  0.21832715  0.58148400     0.03010
C51         C  0.12634463  0.18619088  0.57134526    -0.11070
H52         H  0.07884056  0.17352319  0.50991166     0.08610
H53         H  0.09720921  0.25671826  0.57292754     0.06140
H54         H  0.13983931  0.17323636  0.58424423     0.05990
C55         C  0.42608162  0.29784053  0.00439803     0.03020
C56         C  0.39033465  0.28110282  0.01977207    -0.13130
C57         C  0.35410196  0.25083793  0.00898699     0.00520
C58         C  0.35284280  0.23412451  0.98384340    -0.11650
C59         C  0.38733821  0.24885360  0.96800756     0.03010
C60         C  0.42445334  0.28096048  0.97829208    -0.11070
H61         H  0.38924067  0.29427950  0.03900989     0.08610
H62         H  0.32399813  0.21063350  0.97609175     0.06140
H63         H  0.45107183  0.29395054  0.96556260     0.05990
C64         C  0.12575658  0.16581590  0.04702920     0.03020
C65         C  0.12557593  0.18384969  0.07238271    -0.13130
C66         C  0.16209333  0.21627447  0.08319055     0.00520
C67         C  0.19763281  0.23004041  0.06858002    -0.11650
C68         C  0.19807028  0.21204593  0.04438914     0.03010
C69         C  0.16261603  0.18138089  0.03311573    -0.11070
H70         H  0.09802414  0.17172570  0.08408162     0.08610
H71         H  0.22601611  0.25398539  0.07659331     0.06140
H72         H  0.16495714  0.16739407  0.01460896     0.05990
C73         C  0.45956645  0.33429820  0.37920323     0.03020
C74         C  0.49598487  0.35109864  0.36459879    -0.13130
C75         C  0.03146435  0.38233081  0.37550941     0.00520
C76         C  0.03124401  0.39927497  0.40027374    -0.11650
C77         C  0.49607975  0.38431125  0.41548063     0.03010
C78         C  0.45966990  0.35160335  0.40489304    -0.11070
H79         H  0.49806992  0.33775648  0.34570213     0.08610
H80         H  0.05955591  0.42334720  0.40827368     0.06140
H81         H  0.43248384  0.33862331  0.41704486     0.05990
C82         C  0.25963670  0.46624208  0.33619519     0.03020
C83         C  0.22378128  0.45011597  0.35142168    -0.13130
C84         C  0.18745926  0.41971319  0.34080387     0.00520
C85         C  0.18610747  0.40282206  0.31567041    -0.11650
C86         C  0.22059138  0.41688079  0.29992637     0.03010
C87         C  0.25787929  0.44892278  0.31019123    -0.11070
H88         H  0.22284266  0.46346079  0.37062301     0.08610
H89         H  0.15722240  0.37941307  0.30792769     0.06140
H90         H  0.28460110  0.46139268  0.29758543     0.05990
C91         C  0.11325076  0.13724855  0.16626407     0.03020
C92         C  0.13748216  0.12418573  0.17908655    -0.13130
C93         C  0.14199797  0.09350048  0.16795389     0.00520
C94         C  0.12100898  0.07372172  0.14475714    -0.11650
C95         C  0.09795875  0.08629049  0.13059302     0.03010
C96         C  0.09348883  0.11815686  0.14145344    -0.11070
H97         H  0.15574127  0.13991808  0.19668184     0.08610
H98         H  0.12421616  0.04901080  0.13717575     0.06140
H99         H  0.07635958  0.12888468  0.13028814     0.05990
C100        C  0.27910290  0.50350916  0.21124457     0.03020
C101        C  0.26033595  0.02063040  0.19594370    -0.13130
C102        C  0.25780222  0.05316005  0.20601194     0.00520
C103        C  0.27654547  0.07132764  0.23025160    -0.11650
C104        C  0.29297275  0.05422298  0.24691950     0.03010
C105        C  0.29530328  0.02053690  0.23725885    -0.11070
H106        H  0.24393278  0.50631854  0.17743842     0.08610
H107        H  0.27511313  0.09736128  0.23717639     0.06140
H108        H  0.30759052  0.00660502  0.25035937     0.05990
C109        C  0.04122939  0.25213983  0.83450628     0.03020
C110        C  0.05726595  0.28920140  0.84818943    -0.13130
C111        C  0.08795754  0.32435492  0.83659378     0.00520
C112        C  0.10549495  0.32327265  0.81236222    -0.11650
C113        C  0.09110147  0.28764873  0.79787700     0.03010
C114        C  0.05870471  0.25143843  0.80899688    -0.11070
H115        H  0.04358360  0.29187531  0.86674515     0.08610
H116        H  0.12995279  0.35132647  0.80435595     0.06140
H117        H  0.04621830  0.22374048  0.79745825     0.05990
C118        C  0.17360329  0.05174308  0.87901458     0.03020
C119        C  0.15787397  0.01551515  0.86427144    -0.13130
C120        C  0.12753432  0.47945608  0.87523398     0.00520
C121        C  0.10971195  0.47887749  0.89977426    -0.11650
C122        C  0.12391255  0.01350068  0.91524993     0.03010
C123        C  0.15609880  0.05052644  0.90486083    -0.11070
H124        H  0.17183225  0.01411627  0.84547246     0.08610
H125        H  0.08557589  0.45029251  0.90736540     0.06140
H126        H  0.16852908  0.07743544  0.91725829     0.05990
C127        C  0.37764034  0.40347718  0.66904164     0.03020
C128        C  0.39386040  0.38401024  0.68441975    -0.13130
C129        C  0.42355944  0.37758235  0.67360241     0.00520
C130        C  0.43999689  0.39261230  0.64825749    -0.11650
C131        C  0.42598639  0.41301644  0.63241406     0.03010
C132        C  0.39442935  0.41857382  0.64277885    -0.11070
H133        H  0.38095949  0.37013998  0.70388086     0.08610
H134        H  0.46313800  0.38697667  0.64055925     0.06140
H135        H  0.38196773  0.43277156  0.63009895     0.05990
C136        C  0.01095504  0.23769419  0.71487879     0.03020
C137        C  0.99564430  0.25920199  0.70097011    -0.13130
C138        C  0.46555142  0.26436473  0.71242324     0.00520
C139        C  0.44815197  0.24648213  0.73695355    -0.11650
C140        C  0.46159853  0.22441679  0.75153208     0.03010
C141        C  0.49331285  0.21974979  0.74047028    -0.11070
H142        H  0.00917372  0.27507426  0.68214625     0.08610
H143        H  0.42458741  0.25115940  0.74505790     0.06140
H144        H  0.00510846  0.20394287  0.75207790     0.05990
C145        C  0.20826569  0.08495176  0.50047235     0.03020
C146        C  0.22389535  0.12212647  0.51396603    -0.13130
C147        C  0.25460350  0.15722418  0.50233064     0.00520
C148        C  0.27313572  0.15589944  0.47868161    -0.11650
C149        C  0.25848685  0.12036214  0.46410591     0.03010
C150        C  0.22591754  0.08421000  0.47508036    -0.11070
H151        H  0.20989738  0.12488930  0.53233501     0.08610
H152        H  0.29806089  0.18383083  0.47090614     0.06140
H153        H  0.21344632  0.05653555  0.46351720     0.05990
C154        C  0.34110640  0.38449801  0.54511922     0.03020
C155        C  0.32590426  0.34773197  0.53112440    -0.13130
C156        C  0.29602783  0.31195165  0.54265429     0.00520
C157        C  0.27751305  0.31212919  0.56666118    -0.11650
C158        C  0.29153372  0.34719294  0.58162927     0.03010
C159        C  0.32356789  0.38400087  0.57083605    -0.11070
H160        H  0.33989094  0.34581001  0.51248843     0.08610
H161        H  0.25322713  0.28374314  0.57438936     0.06140
H162        H  0.33580472  0.41130256  0.58280465     0.05990
C163        C  0.21024915  0.06979890  0.00371505     0.03020
C164        C  0.22683506  0.05086059  0.01934720    -0.13130
C165        C  0.25753825  0.04565645  0.00898032     0.00520
C166        C  0.27438791  0.06117740  0.98380482    -0.11650
C167        C  0.25964134  0.08055779  0.96759731     0.03010
C168        C  0.22734616  0.08519157  0.97758002    -0.11070
H169        H  0.21353433  0.03645343  0.03860341     0.08610
H170        H  0.29817833  0.05632210  0.97638555     0.06140
H171        H  0.21448163  0.09874468  0.96465254     0.05990
C172        C  0.34308386  0.40332287  0.04742567     0.03020
C173        C  0.32789695  0.42472090  0.03316755    -0.13130
C174        C  0.29749059  0.42970216  0.04422404     0.00520
C175        C  0.27994235  0.41208865  0.06878072    -0.11650
C176        C  0.29352949  0.39046658  0.08372751     0.03010
C177        C  0.32532573  0.38572376  0.07300774    -0.11070
H178        H  0.34172238  0.44061092  0.01440567     0.08610
H179        H  0.25623639  0.41674029  0.07664601     0.06140
H180        H  0.33715476  0.37019387  0.08490040     0.05990
C181        C  0.17523866  0.06574457  0.37897739     0.03020
C182        C  0.15529131  0.08116034  0.36324937    -0.13130
C183        C  0.12942136  0.09240389  0.37550582     0.00520
C184        C  0.11868531  0.08181549  0.40273960    -0.11650
C185        C  0.13093438  0.05889651  0.41737573     0.03010
C186        C  0.16084341  0.05203400  0.40586646    -0.11070
H187        H  0.16229965  0.08674044  0.34190463     0.08610
H188        H  0.10016935  0.09147495  0.41296893     0.06140
H189        H  0.17387783  0.03791824  0.41805053     0.05990
C190        C  0.04583802  0.23977215  0.33653536     0.03020
C191        C  0.06525308  0.22396931  0.35253700    -0.13130
C192        C  0.09027421  0.21150366  0.34041032     0.00520
C193        C  0.10041258  0.22065864  0.31297602    -0.11650
C194        C  0.08869349  0.24364607  0.29805138     0.03010
C195        C  0.05979482  0.25204521  0.30944757    -0.11070
H196        H  0.05830982  0.21873080  0.37394605     0.08610
H197        H  0.11811992  0.20990165  0.30285975     0.06140
H198        H  0.04703010  0.26616173  0.29697770     0.05990
C199        C  0.00673852  0.21801569  0.21108435     0.03020
C200        C  0.49159368  0.18115590  0.19718668    -0.13130
C201        C  0.46130778  0.14548699  0.20863516     0.00520
C202        C  0.44233427  0.14602198  0.23231990    -0.11650
C203        C  0.45690124  0.18103778  0.24739473     0.03010
C204        C  0.48914601  0.21767734  0.23669557    -0.11070
H205        H  0.00594995  0.17907624  0.17878619     0.08610
H206        H  0.41765155  0.11782109  0.23996502     0.06140
H207        H  0.00160582  0.24494301  0.24872194     0.05990
C208        C  0.37422143  0.41813698  0.16803285     0.03020
C209        C  0.39008453  0.45541348  0.18143974    -0.13130
C210        C  0.42141872  0.49024917  0.16995500     0.00520
C211        C  0.44035070  0.48841312  0.14666221    -0.11650
C212        C  0.42511770  0.45287139  0.13202638     0.03010
C213        C  0.39201661  0.41703204  0.14282191    -0.11070
H214        H  0.37579632  0.45850683  0.19954189     0.08610
H215        H  0.46576928  0.01607067  0.13899251     0.06140
H216        H  0.37919227  0.38938564  0.13119440     0.05990
C217        C  0.27472641  0.25089668  0.33572103     0.03020
C218        C  0.29349283  0.28631598  0.35135474    -0.13130
C219        C  0.29822281  0.32215998  0.34107278     0.00520
C220        C  0.28213813  0.32346387  0.31608453    -0.11650
C221        C  0.26298531  0.28939949  0.29981607     0.03010
C222        C  0.25927722  0.25267847  0.30955542    -0.11070
H223        H  0.30823186  0.28749422  0.37050261     0.08610
H224        H  0.28654185  0.35209595  0.30879615     0.06140
H225        H  0.24644381  0.22665209  0.29634739     0.05990
C226        C  0.43882218  0.04949515  0.37995591     0.03020
C227        C  0.41881480  0.01319649  0.36537496    -0.13130
C228        C  0.41522993  0.47811836  0.37612756     0.00520
C229        C  0.43326898  0.47839725  0.40060279    -0.11650
C230        C  0.45340879  0.01339460  0.41598596     0.03010
C231        C  0.45629712  0.04944543  0.40569750    -0.11070
H232        H  0.40265578  0.01090731  0.34667466     0.08610
H233        H  0.42969313  0.45024177  0.40822780     0.06140
H234        H  0.47018956  0.07628994  0.41812482     0.05990
C235        C  0.27358550  0.21741308  0.71489340     0.03020
C236        C  0.25295424  0.18017262  0.70127342    -0.13130
C237        C  0.25237029  0.14609167  0.71179711     0.00520
C238        C  0.27541025  0.14937393  0.73432486    -0.11650
C239        C  0.29230643  0.18383482  0.75016296     0.03010
C240        C  0.29274842  0.21885267  0.74015658    -0.11070
H241        H  0.23446029  0.17654646  0.68357413     0.08610
H242        H  0.27686618  0.12317580  0.74096450     0.06140
H243        H  0.30609850  0.24598671  0.75234696     0.05990
C244        C  0.10921108  0.41812884  0.66830915     0.03020
C245        C  0.09042801  0.41800493  0.64317806    -0.13130
C246        C  0.09366338  0.45430478  0.63298812     0.00520
C247        C  0.11360020  0.48909291  0.64837086    -0.11650
C248        C  0.13629668  0.49076161  0.67073061     0.03010
C249        C  0.13255732  0.45538462  0.68154817    -0.11070
H250        H  0.07517196  0.39070341  0.63119170     0.08610
H251        H  0.11438909  0.01639572  0.64165392     0.06140
H252        H  0.15088131  0.45782657  0.69909017     0.05990
C253        C  0.42581098  0.06591050  0.50041540     0.03020
C254        C  0.38871047  0.04427198  0.51410165    -0.13130
C255        C  0.35361867  0.03993016  0.50258738     0.00520
C256        C  0.35481131  0.05969134  0.47881296    -0.11650
C257        C  0.39029379  0.08089669  0.46417499     0.03010
C258        C  0.42647747  0.08453668  0.47503295    -0.11070
H259        H  0.38596371  0.02744034  0.53253262     0.08610
H260        H  0.32683469  0.05648351  0.47105171     0.06140
H261        H  0.45410715  0.09996834  0.46338891     0.05990
C262        C  0.12521660  0.39977501  0.54517598     0.03020
C263        C  0.16187668  0.42156676  0.53096752    -0.13130
C264        C  0.19776392  0.42776866  0.54240786     0.00520
C265        C  0.19786701  0.40937103  0.56657570    -0.11650
C266        C  0.16294274  0.38807109  0.58168919     0.03010
C267        C  0.12597868  0.38286565  0.57098052    -0.11070
H268        H  0.16364517  0.43734471  0.51220353     0.08610
H269        H  0.22637254  0.41384020  0.57426354     0.06140
H270        H  0.09876265  0.36755699  0.58306277     0.05990
C271        C  0.29126177  0.23332789  0.21180421     0.03020
C272        C  0.32738146  0.25442066  0.19694162    -0.13130
C273        C  0.36356555  0.26068604  0.20779011     0.00520
C274        C  0.36480275  0.24427999  0.23262438    -0.11650
C275        C  0.33011977  0.22264408  0.24804244     0.03010
C276        C  0.29279622  0.21696824  0.23764557    -0.11070
H277        H  0.32856089  0.26943850  0.17793381     0.08610
H278        H  0.39371422  0.24986820  0.24030156     0.06140
H279        H  0.26585830  0.20170249  0.25000382     0.05990
C280        C  0.09166592  0.40005111  0.16860772     0.03020
C281        C  0.05544735  0.38059256  0.18346829    -0.13130
C282        C  0.02017911  0.37675075  0.17271225     0.00520
C283        C  0.02022379  0.39388453  0.14791918    -0.11650
C284        C  0.05509606  0.41347183  0.13236551     0.03010
C285        C  0.09142297  0.41705655  0.14278307    -0.11070
H286        H  0.05331198  0.36496402  0.20237797     0.08610
H287        H  0.99196020  0.39001455  0.14020138     0.06140
H288        H  0.11840103  0.43099077  0.13040525     0.05990
C289        C  0.44127846  0.08360772  0.00351648     0.03020
C290        C  0.46296956  0.11979001  0.01826265    -0.13130
C291        C  0.46937394  0.15605192  0.00746698     0.00520
C292        C  0.45278709  0.15725067  0.98266381    -0.11650
C293        C  0.43085629  0.12256120  0.96727318     0.03010
C294        C  0.42485899  0.08520583  0.97771864    -0.11070
H295        H  0.47812808  0.12086838  0.03719258     0.08610
H296        H  0.45853709  0.18616029  0.97494191     0.06140
H297        H  0.40929047  0.05825171  0.96541739     0.05990
C298        C  0.10867392  0.38422599  0.04573580     0.03020
C299        C  0.09023275  0.34830349  0.03052120    -0.13130
C300        C  0.08732041  0.31321636  0.04091277     0.00520
C301        C  0.10445014  0.31337072  0.06578156    -0.11650
C302        C  0.12274827  0.34787835  0.08177153     0.03010
C303        C  0.12548672  0.38392341  0.07163042    -0.11070
H304        H  0.07457577  0.34613234  0.01160923     0.08610
H305        H  0.10118168  0.28532224  0.07337328     0.06140
H306        H  0.13849954  0.41056674  0.08431295     0.05990
C307        C  0.25821892  0.23176083  0.83422678     0.03020
C308        C  0.25941329  0.25096883  0.80900322    -0.13130
C309        C  0.22359502  0.24825966  0.79824633     0.00520
C310        C  0.18815270  0.22799442  0.81303522    -0.11650
C311        C  0.18601048  0.20644665  0.83610195     0.03010
C312        C  0.22078457  0.20969581  0.84747169    -0.11070
H313        H  0.28712165  0.26617396  0.79743110     0.08610
H314        H  0.16073857  0.22644168  0.80562539     0.06140
H315        H  0.21759259  0.19195291  0.86550213     0.05990
C316        C  0.45786934  0.06613960  0.87946163     0.03020
C317        C  0.49469266  0.08802980  0.86542537    -0.13130
C318        C  0.03022773  0.09242565  0.87637987     0.00520
C319        C  0.02938736  0.07174972  0.89963721    -0.11650
C320        C  0.49468385  0.05183808  0.91510482     0.03010
C321        C  0.45819775  0.04826813  0.90490821    -0.11070
H322        H  0.49688428  0.10511662  0.84724418     0.08610
H323        H  0.05727260  0.07407978  0.90676780     0.06140
H324        H  0.43110856  0.03355230  0.91715618     0.05990
O325        O  0.36606365  0.09014683  0.78834868    -0.80240
O326        O  0.23516718  0.11429206  0.88718747    -0.81790
O327        O  0.27633326  0.03077995  0.82796173    -0.78810
O328        O  0.28998933  0.14479516  0.78875560    -0.77200
O329        O  0.33869745  0.21152463  0.78643932    -0.78990
O330        O  0.30261503  0.02212043  0.86759314    -0.79920
O331        O  0.22729562  0.08153425  0.84681692    -0.81240
O332        O  0.29928093  0.07158114  0.78591639    -0.81530
Eu333      Eu  0.29449259  0.10261784  0.82691907     2.39200
O334        O  0.31035222  0.16581389  0.84276512    -0.89040
O335        O  0.34447326  0.08857656  0.84278165    -0.92650
C336        C  0.33059852  0.07206929  0.77659816     1.02040
C337        C  0.21370636  0.08596544  0.86997607     1.01860
C338        C  0.28476807  0.00946168  0.84418266     1.01810
C339        C  0.30753669  0.18027783  0.77710471     0.99660
H340        H  0.27154297  0.07748521  0.88206618     0.29410
O341        O  0.29565912  0.10026093  0.87499502    -1.01430
H342        H  0.35932185  0.15240276  0.79214643     0.29450
O343        O  0.35905646  0.15196984  0.81182248    -1.03970
O344        O  0.34726340  0.21049050  0.92976405    -0.81200
O345        O  0.48018203  0.18857441  0.82846749    -0.80740
O346        O  0.29873691  0.07953928  0.92968607    -0.79170
O347        O  0.32197550  0.23508018  0.82847124    -0.82510
O348        O  0.42276696  0.22385252  0.78968810    -0.80370
O349        O  0.39533427  0.06459457  0.88739470    -0.79020
O350        O  0.43126559  0.16285332  0.92949618    -0.80540
O351        O  0.44651338  0.27517598  0.88749924    -0.82460
O352        O  0.38421515  0.09552041  0.93105159    -0.79200
O353        O  0.42140843  0.28293024  0.84706379    -0.81880
O354        O  0.27785579  0.12582660  0.93084898    -0.77610
O355        O  0.42852837  0.09032828  0.84715570    -0.77640
O356        O  0.44028405  0.17524931  0.78656376    -0.77290
O357        O  0.28585340  0.20685432  0.86733469    -0.80790
O358        O  0.41467966  0.23137125  0.93132864    -0.80210
O359        O  0.48834301  0.22447064  0.86740593    -0.78540
Eu360      Eu  0.30850075  0.16423720  0.89049386     2.39770
Eu361      Eu  0.40782342  0.13642537  0.82686986     2.39570
Eu362      Eu  0.34552942  0.08762565  0.89061275     2.38400
Eu363      Eu  0.37477863  0.21611339  0.82736975     2.39880
Eu364      Eu  0.42298473  0.20193748  0.89069344     2.39790
O365        O  0.42238101  0.20042651  0.84294372    -0.92950
O366        O  0.35905915  0.15124866  0.90521878    -0.91850
C367        C  0.38298746  0.22964086  0.94109080     1.02220
C368        C  0.50144923  0.21858938  0.84449061     1.00930
C369        C  0.27935200  0.09578189  0.94076281     1.00320
C370        C  0.29176160  0.22583923  0.84433286     1.02340
C371        C  0.44104624  0.20711103  0.77786515     1.01260
C372        C  0.42383900  0.07198145  0.87031234     1.00100
C373        C  0.41480993  0.12708531  0.94070587     1.00160
C374        C  0.43961224  0.29652322  0.87020803     1.02780
H375        H  0.43227764  0.13807004  0.88211607     0.30150
O376        O  0.40956505  0.13935352  0.87498454    -1.05110
H377        H  0.37297835  0.23859098  0.88253714     0.32200
O378        O  0.37148791  0.21458130  0.87538716    -1.07680
O379        O  0.45325247  0.42342503  0.95326240    -0.80240
O380        O  0.10914026  0.44628038  0.05333085    -0.81790
O381        O  0.08438436  0.47327867  0.95317371    -0.78810
O382        O  0.48814508  0.35979631  0.99590201    -0.77200
O383        O  0.45498158  0.35197357  0.03609312    -0.78990
O384        O  0.10585422  0.04073241  0.95168077    -0.79920
O385        O  0.08201127  0.41155942  0.01382549    -0.81240
O386        O  0.49971320  0.40274932  0.95198384    -0.81530
Eu387      Eu  0.03775575  0.43317674  0.99223825     2.39200
O388        O  0.03883585  0.43421927  0.04002400    -0.89040
O389        O  0.02455067  0.48342624  0.97743454    -0.92650
C390        C  0.46962231  0.40421588  0.94215145     1.02040
C391        C  0.10104784  0.41710112  0.03674119     1.01860
C392        C  0.10404845  0.50907324  0.94193818     1.01810
C393        C  0.45984313  0.33830213  0.01313710     0.99660
H394        H  0.11169098  0.49706108  0.00042001     0.29410
O395        O  0.08776023  0.49572517  0.00761074    -1.01430
H396        H  0.45088986  0.39589393  0.00064390     0.29450
O397        O  0.47359362  0.42004085  0.00776388    -1.03970
O398        O  0.09672486  0.04666146  0.09287106    -0.81200
O399        O  0.43867122  0.02051307  0.99540836    -0.80740
O400        O  0.14860585  0.07042190  0.99532843    -0.79170
O401        O  0.51592661  0.41203964  0.09399176    -0.82510
O402        O  0.40352802  0.40013108  0.05418138    -0.80370
O403        O  0.03460076  0.05276200  0.95314015    -0.79020
O404        O  0.06243564  0.10461357  0.05382247    -0.80540
O405        O  0.46290120  0.99120095  0.09357456    -0.82460
O406        O  0.09727818  0.11280271  0.01437838    -0.79200
O407        O  0.44438653  0.42460148  0.09656368    -0.81880
O408        O  0.15621510  0.04462934  0.03551379    -0.77610
O409        O  0.46700530  0.00645112  0.95164860    -0.77640
O410        O  0.39530906  0.42651089  0.01448430    -0.77290
O411        O  0.08272581  0.46059149  0.09635038    -0.80790
O412        O  0.04821168  0.06436334  0.09601702    -0.80210
O413        O  0.46352536  0.05281229  0.03599931    -0.78540
Eu414      Eu  0.08923563  0.49836702  0.05557558     2.39770
Eu415      Eu  0.46095633  0.46992074  0.99231878     2.39570
Eu416      Eu  0.07524814  0.04711478  0.99213803     2.38400
Eu417      Eu  0.47555518  0.41886429  0.05581415     2.39880
Eu418      Eu  0.01003796  0.03228764  0.05562933     2.39790
O419        O  0.46167887  0.46893792  0.04006466    -0.92950
O420        O  0.07409686  0.04643164  0.03988694    -0.91850
C421        C  0.08009097  0.06510175  0.10462837     1.02220
C422        C  0.44586498  0.04879070  0.01265564     1.00930
C423        C  0.16995271  0.06326640  0.01248390     1.00320
C424        C  0.05140075  0.42926122  0.10558733     1.02340
C425        C  0.38237827  0.40854013  0.03776462     1.01260
C426        C  0.99881458  0.03638316  0.94184860     1.00100
C427        C  0.09196643  0.12591851  0.03744075     1.00160
C428        C  0.44457593  0.45596341  0.10545785     1.02780
H429        H  0.01164814  0.05692757  0.00048773     0.30150
O430        O  0.01275924  0.03414518  0.00762698    -1.05110
H431        H  0.02535824  0.48332557  0.09063634     0.32200
O432        O  0.02511856  0.48321351  0.07095518    -1.07680
O433        O  0.43153107  0.21427923  0.42598440    -0.80240
O434        O  0.27537399  0.18962464  0.32724337    -0.81790
O435        O  0.39664251  0.27268933  0.38622793    -0.78810
O436        O  0.29675768  0.15902968  0.42582979    -0.77200
O437        O  0.27835938  0.09246374  0.42868590    -0.78990
O438        O  0.43175600  0.28087602  0.34691791    -0.79920
O439        O  0.29835283  0.22115870  0.36821025    -0.81240
O440        O  0.38295986  0.23195386  0.42871025    -0.81530
Eu441      Eu  0.34443537  0.20027458  0.38813851     2.39200
O442        O  0.29592230  0.13684861  0.37226591    -0.89040
O443        O  0.40858417  0.21461730  0.37254645    -0.92650
C444        C  0.41463465  0.23248570  0.43764999     1.02040
C445        C  0.28120241  0.21720103  0.34466947     1.01860
C446        C  0.42616723  0.29405778  0.36984220     1.01810
C447        C  0.27830785  0.12370110  0.43759684     0.99660
H448        H  0.34686754  0.22479349  0.33312508     0.29410
O449        O  0.34756038  0.20176244  0.34019437    -1.01430
H450        H  0.35957541  0.15128290  0.42310509     0.29450
O451        O  0.35950796  0.15129066  0.40342248    -1.03970
O452        O  0.29058720  0.09213528  0.28506030    -0.81200
O453        O  0.43885961  0.11118621  0.38706218    -0.80740
O454        O  0.37037118  0.22271828  0.28583886    -0.79170
O455        O  0.23740881  0.06577404  0.38549759    -0.82510
O456        O  0.35158092  0.08075251  0.42589968    -0.80370
O457        O  0.48371995  0.23954546  0.32899890    -0.79020
O458        O  0.41856070  0.14155743  0.28572566    -0.80540
O459        O  0.32232023  0.02791182  0.32799224    -0.82460
O460        O  0.44005175  0.20897154  0.28402389    -0.79200
O461        O  0.28953139  0.01988356  0.36834962    -0.81880
O462        O  0.30287535  0.17596675  0.28408360    -0.77610
O463        O  0.49164977  0.21247427  0.36852077    -0.77640
O464        O  0.41830099  0.12939855  0.42893740    -0.77290
O465        O  0.22921072  0.09384170  0.34656531    -0.80790
O466        O  0.33649863  0.07069082  0.28431702    -0.80090
O467        O  0.41659620  0.07897162  0.34631745    -0.78540
Eu468      Eu  0.29575331  0.13777083  0.32439631     2.39770
Eu469      Eu  0.42392499  0.16671117  0.38822840     2.39570
Eu470      Eu  0.41018830  0.21531776  0.32480152     2.38400
Eu471      Eu  0.31002700  0.08689087  0.38807911     2.39880
Eu472      Eu  0.37281817  0.10126551  0.32491275     2.39790
O473        O  0.37343956  0.10267259  0.37257103    -0.92950
O474        O  0.35964417  0.15151052  0.31002269    -0.91850
C475        C  0.30705761  0.07284490  0.27406203     1.02220
C476        C  0.43266314  0.08294830  0.37022572     1.00930
C477        C  0.33457721  0.20648610  0.27455102     1.00320
C478        C  0.21583450  0.07390538  0.36926462     1.02340
C479        C  0.38693751  0.09774054  0.43774699     1.01260
C480        C  0.50537393  0.23230121  0.34585855     1.00100
C481        C  0.43786700  0.17716690  0.27426838     1.00160
C482        C  0.29395746  0.00636575  0.34517943     1.02780
H483        H  0.44726957  0.16572955  0.33300602     0.30150
O484        O  0.42317609  0.16409199  0.34016907    -1.05110
H485        H  0.28580570  0.06416034  0.33281732     0.32200
O486        O  0.30852628  0.08818073  0.34004740    -1.07680
O487        O  0.23020123  0.43935861  0.72060055    -0.80240
O488        O  0.25233842  0.30756073  0.61974179    -0.81790
O489        O  0.31647283  0.40500786  0.66115180    -0.78810
O490        O  0.20294706  0.38868324  0.61968274    -0.77200
O491        O  0.13546355  0.34194544  0.61796602    -0.78990
O492        O  0.32426143  0.37949795  0.70140644    -0.79920
O493        O  0.27344830  0.37492585  0.61784987    -0.81240
O494        O  0.26654150  0.44734024  0.68192380    -0.81530
Eu495      Eu  0.24328806  0.38191664  0.65846207     2.39200
O496        O  0.19244207  0.31809430  0.64385656    -0.89040
O497        O  0.24191156  0.38133218  0.70621726    -0.92650
C498        C  0.26045503  0.46053426  0.70473300     1.02040
C499        C  0.27178176  0.34320886  0.60830636     1.01860
C500        C  0.33783029  0.39779012  0.67822528     1.01810
C501        C  0.16717104  0.37228301  0.60835351     0.99660
H502        H  0.27958642  0.33150651  0.66673059     0.29410
O503        O  0.25570109  0.33031963  0.67387245    -1.01430
H504        H  0.17979167  0.39146843  0.66666537     0.29450
O505        O  0.18070636  0.36864795  0.67391527    -1.03970
O506        O  0.15534694  0.19451195  0.66123551    -0.81200
O507        O  0.12973194  0.32619176  0.75958666    -0.80740
O508        O  0.27617710  0.28074996  0.72079261    -0.79170
O509        O  0.12064968  0.25750057  0.61945211    -0.82510
O510        O  0.10628594  0.35482352  0.66113346    -0.80370
O511        O  0.26530211  0.38167311  0.75946855    -0.79020
O512        O  0.18493953  0.24753125  0.75984061    -0.80540
O513        O  0.07125111  0.23412759  0.72095694    -0.82460
O514        O  0.25161019  0.29632379  0.76272017    -0.79200
O515        O  0.06328344  0.26167772  0.68172293    -0.81880
O516        O  0.24722789  0.24425135  0.68217490    -0.77610
O517        O  0.21663922  0.39917177  0.76250803    -0.77640
O518        O  0.13257959  0.38863047  0.70110299    -0.77290
O519        O  0.16707945  0.23677913  0.61820591    -0.80790
O520        O  0.12176010  0.18647847  0.70129450    -0.80210
O521        O  0.11159156  0.25969238  0.76269854    -0.78540
Eu522      Eu  0.20541567  0.26763402  0.65859537     2.39770
Eu523      Eu  0.17785232  0.36716045  0.72197048     2.39570
Eu524      Eu  0.25725450  0.33350502  0.72189716     2.38400
Eu525      Eu  0.12870082  0.30449645  0.65848784     2.39880
Eu526      Eu  0.14329488  0.25349330  0.72210135     2.39790
O527        O  0.12963366  0.30372718  0.70627874    -0.92950
O528        O  0.20663966  0.26933757  0.70634387    -0.91850
C529        C  0.12649749  0.17309993  0.67809418     1.02220
C530        C  0.11126344  0.29091464  0.77143925     1.00930
C531        C  0.26664679  0.25039312  0.70502918     1.00320
C532        C  0.13688104  0.23810288  0.60834421     1.02340
C533        C  0.11423068  0.38379790  0.67790792     1.01260
C534        C  0.24855081  0.39997278  0.77124695     1.00100
C535        C  0.22030955  0.26474410  0.77165606     1.00160
C536        C  0.05021384  0.24306063  0.70484984     1.02780
H537        H  0.19303205  0.31817257  0.75692291     0.30150
O538        O  0.19288507  0.31803423  0.73723911    -1.05110
H539        H  0.11850197  0.23099296  0.66683700     0.32200
O540        O  0.14138118  0.25487932  0.67404490    -1.07680
O541        O  0.20082016  0.25533410  0.12138269    -0.80240
O542        O  0.06797517  0.28076918  0.21883999    -0.81790
O543        O  0.10848242  0.19674370  0.16017683    -0.78810
O544        O  0.12060454  0.30856196  0.12026782    -0.77200
O545        O  0.16898072  0.37541993  0.11834510    -0.78990
O546        O  0.13560738  0.18881453  0.19967527    -0.79920
O547        O  0.06021112  0.24731548  0.17875751    -0.81240
O548        O  0.13420748  0.23694934  0.11828390    -0.81530
Eu549      Eu  0.12735398  0.26856817  0.15873135     2.39200
O550        O  0.14245561  0.33163044  0.17481934    -0.89040
O551        O  0.17748733  0.25507113  0.17499822    -0.92650
C552        C  0.16552349  0.23675261  0.10953218     1.02040
C553        C  0.04663154  0.25214053  0.20179819     1.01860
C554        C  0.11751388  0.17589565  0.17637986     1.01810
C555        C  0.13794332  0.34408274  0.10879210     0.99660
H556        H  0.10459604  0.24393840  0.21370651     0.29410
O557        O  0.12876988  0.26679657  0.20679680    -1.01430
H558        H  0.19203371  0.31832756  0.12413665     0.29450
O559        O  0.19179746  0.31818986  0.14381762    -1.03970
O560        O  0.18018217  0.37702878  0.26203579    -0.81200
O561        O  0.31312498  0.35493799  0.16154610    -0.80740
O562        O  0.12947050  0.24436258  0.26067431    -0.79170
O563        O  0.15429171  0.40161746  0.16134044    -0.82510
O564        O  0.25478153  0.39043919  0.12171499    -0.80370
O565        O  0.22829969  0.23111493  0.21984742    -0.79020
O566        O  0.26369499  0.32965102  0.26197697    -0.80540
O567        O  0.27890868  0.44160008  0.21956740    -0.82460
O568        O  0.21694779  0.26220205  0.26333103    -0.79200
O569        O  0.25277927  0.44923197  0.17951183    -0.81880
O570        O  0.10864305  0.29061530  0.26217777    -0.77610
O571        O  0.26125281  0.25679167  0.17954740    -0.77640
O572        O  0.27261331  0.34199287  0.11902422    -0.77290
O573        O  0.11950876  0.37437799  0.20080717    -0.80790
O574        O  0.24775817  0.39877886  0.26339408    -0.80210
O575        O  0.32090746  0.39074679  0.20046203    -0.78540
Eu576      Eu  0.14121874  0.33043901  0.22269919     2.39770
Eu577      Eu  0.24081873  0.30314992  0.15938662     2.39570
Eu578      Eu  0.17833993  0.25409229  0.22279245     2.38400
Eu579      Eu  0.20666531  0.38219140  0.15933080     2.39880
Eu580      Eu  0.25531943  0.36839501  0.22302270     2.39790
O581        O  0.25470853  0.36705632  0.17521688    -0.92950
O582        O  0.19162442  0.31752528  0.23795136    -0.91850
C583        C  0.21603034  0.39687619  0.27320659     1.02220
C584        C  0.33422466  0.38482637  0.17769119     1.00930
C585        C  0.10937555  0.25992445  0.27160300     1.00320
C586        C  0.12495328  0.39324786  0.17784364     1.02340
C587        C  0.27312334  0.37362038  0.11010287     1.01260
C588        C  0.25677967  0.23855229  0.20271645     1.00100
C589        C  0.24734347  0.29384884  0.27309745     1.00160
C590        C  0.27172069  0.46295609  0.20246865     1.02780
H591        H  0.26509342  0.30468526  0.21460664     0.30150
O592        O  0.24239693  0.30595714  0.20742403    -1.05110
H593        H  0.20518725  0.40457815  0.21457991     0.32200
O594        O  0.20382359  0.38065885  0.20737428    -1.07680
O595        O  0.01629557  0.04273825  0.59502837    -0.80240
O596        O  0.14738410  0.02146677  0.49417786    -0.81790
O597        O  0.09476204  0.99394927  0.59478972    -0.78810
O598        O  0.11238570  0.10795159  0.55290977    -0.77200
O599        O  0.08674955  0.11586976  0.51273431    -0.78990
O600        O  0.04829102  0.42646647  0.59640512    -0.79920
O601        O  0.15540339  0.05695030  0.53328854    -0.81240
O602        O  0.08386426  0.06443684  0.59661691    -0.81530
Eu603      Eu  0.08965209  0.03468065  0.55565024     2.39200
O604        O  0.08903777  0.03344408  0.50790660    -0.89040
O605        O  0.02592601  0.48396106  0.57030202    -0.92650
C606        C  0.05201475  0.06209324  0.60647123     1.02040
C607        C  0.16854893  0.05130705  0.51033979     1.01860
C608        C  0.07820562  0.45827951  0.60620524     1.01810
C609        C  0.10517727  0.12941274  0.53589480     0.99660
H610        H  0.09928993  0.47096007  0.54750492     0.29410
O611        O  0.07658743  0.47213407  0.54022512    -1.01430
H612        H  0.03925902  0.07094438  0.54747202     0.29450
O613        O  0.03820221  0.04723495  0.54014788    -1.03970
O614        O  0.03508911  0.42243313  0.45384413    -0.81200
O615        O  0.40235856  0.44750065  0.55249971    -0.80740
O616        O  0.06224325  0.39755122  0.55266458    -0.79170
O617        O  0.09086697  0.05802747  0.45511509    -0.82510
O618        O  0.48901241  0.06848273  0.49384281    -0.80370
O619        O  0.46525440  0.41237646  0.59448367    -0.79020
O620        O  0.44201869  0.36277318  0.49366626    -0.80540
O621        O  0.45317106  0.47460102  0.45416329    -0.82460
O622        O  0.46861220  0.35465753  0.53331052    -0.79200
O623        O  0.50203689  0.04121851  0.45141374    -0.81880
O624        O  0.09562546  0.42324635  0.51249921    -0.77610
O625        O  0.44462741  0.45882531  0.59590954    -0.77640
O626        O  0.45387139  0.04101002  0.53320199    -0.77290
O627        O  0.10868880  0.00960975  0.45240300    -0.80790
O628        O  0.46834477  0.40382952  0.45125844    -0.80210
O629        O  0.39437085  0.41372807  0.51253722    -0.78540
Eu630      Eu  0.07508129  0.46952455  0.49214353     2.39770
Eu631      Eu  0.47567773  0.49718416  0.55562108     2.39570
Eu632      Eu  0.01218268  0.42034128  0.55550248     2.38400
Eu633      Eu  0.04120387  0.04884779  0.49205106     2.39880
Eu634      Eu  0.46135390  0.43481559  0.49196430     2.39790
O635        O  0.47718413  0.49817535  0.50781235    -0.92950
O636        O  0.01156337  0.42109282  0.50770470    -0.91850
C637        C  0.99967512  0.40398523  0.44215383     1.02220
C638        C  0.38089582  0.41869790  0.53560866     1.00930
C639        C  0.09088663  0.40497568  0.53570064     1.00320
C640        C  0.10983931  0.04167200  0.44369389     1.02340
C641        C  0.45938857  0.05980032  0.51014845     1.01260
C642        C  0.44589478  0.42857164  0.60566042     1.00100
C643        C  0.45036642  0.34162388  0.51010580     1.00160
C644        C  0.47022236  0.00994751  0.44249164     1.02780
H645        H  0.43862358  0.41034622  0.54721293     0.30150
O646        O  0.46258720  0.43313590  0.54000386    -1.05110
H647        H  0.02607247  0.98486451  0.45704263     0.32200
O648        O  0.02588511  0.48456739  0.47672851    -1.07680
C649        C  0.14616789  0.17687079  0.84622116    -0.00260
C650        C  0.13685313  0.17938307  0.87331370    -0.12140
C651        C  0.09869444  0.15278279  0.88332675     0.01970
C652        C  0.06955725  0.12277213  0.86594363    -0.00350
C653        C  0.07876659  0.12046296  0.83878461    -0.12080
C654        C  0.11692877  0.14714090  0.82875779     0.01860
H655        H  0.15924101  0.20257069  0.88647831     0.14840
H656        H  0.05642029  0.09720483  0.82564142     0.14840
C657        C  0.12547590  0.14278301  0.80068921     0.36490
C658        C  0.09018708  0.15728343  0.91138607     0.36400
N659        N  0.13219996  0.13952389  0.77815660    -0.43850
N660        N  0.08352984  0.16066060  0.93391345    -0.43850
C661        C  0.05765671  0.27405176  0.03008391    -0.00260
C662        C  0.01724139  0.25965664  0.03690493    -0.12140
C663        C  0.48804967  0.21997052  0.03144446     0.01970
C664        C  0.99950635  0.19445612  0.01899428    -0.00350
C665        C  0.03997126  0.20873403  0.01230211    -0.12080
C666        C  0.06923861  0.24846801  0.01785744     0.01860
H667        H  0.00876544  0.27924744  0.04715779     0.14840
H668        H  0.04835926  0.18916384  0.00193141     0.14840
C669        C  0.11062845  0.26260217  0.01049914     0.36490
C670        C  0.44668745  0.20598867  0.03878981     0.36400
N671        N  0.14374549  0.27392469  0.00446094    -0.43850
N672        N  0.41361600  0.19488171  0.04482048    -0.43850
C673        C  0.40187173  0.29062854  0.19623370    -0.00260
C674        C  0.41872206  0.33028669  0.20568792    -0.12140
C675        C  0.45838852  0.35879516  0.19940036     0.01970
C676        C  0.48120007  0.34719238  0.18363095    -0.00350
C677        C  0.46425912  0.30759708  0.17405582    -0.12080
C678        C  0.42460454  0.27912949  0.18029748     0.01860
H679        H  0.40115902  0.33853529  0.21859821     0.14840
H680        H  0.48186389  0.29928410  0.16123862     0.14840
C681        C  0.40779955  0.23848448  0.17029488     0.36490
C682        C  0.47524255  0.39942840  0.20943135     0.36400
N683        N  0.39421855  0.20594443  0.16219755    -0.43850
N684        N  0.48883994  0.43195556  0.21755903    -0.43850
C685        C  0.31419593  0.01038301  0.51300732    -0.00260
C686        C  0.30201965  0.01760529  0.53803650    -0.12140
C687        C  0.26323960  0.49172705  0.54739169     0.01970
C688        C  0.23660740  0.45796952  0.53150682    -0.00350
C689        C  0.24868102  0.45093521  0.50636079    -0.12080
C690        C  0.28744414  0.47690788  0.49696252     0.01860
H691        H  0.32256427  0.04380992  0.54994147     0.14840
H692        H  0.22819397  0.42465919  0.49449604     0.14840
C693        C  0.29929211  0.46843377  0.47100810     0.36490
C694        C  0.25139637  0.50037964  0.57328115     0.36400
N695        N  0.30877889  0.46183529  0.45017395    -0.43850
N696        N  0.24194344  0.50709175  0.59408498    -0.43850
C697        C  0.22353202  0.10577858  0.70166054    -0.00260
C698        C  0.22140156  0.09893638  0.67362913    -0.12140
C699        C  0.19360401  0.06156990  0.66305436     0.01970
C700        C  0.16700724  0.03035588  0.68092724    -0.00350
C701        C  0.16955199  0.03704850  0.70898657    -0.12080
C702        C  0.19740350  0.07435224  0.71956644     0.01860
H703        H  0.24170662  0.12285647  0.65998487     0.14840
H704        H  0.14905702  0.01327113  0.72264491     0.14840
C705        C  0.19739991  0.07940184  0.74878045     0.36490
C706        C  0.19354876  0.05641529  0.63385030     0.36400
N707        N  0.19756641  0.08294870  0.77221563    -0.43850
N708        N  0.19320932  0.05274763  0.61041929    -0.43850
C709        C  0.32801128  0.36038880  0.35270587    -0.00260
C710        C  0.36813132  0.37593636  0.34455503    -0.12140
C711        C  0.39707180  0.41537725  0.35081373     0.01970
C712        C  0.38548133  0.43921725  0.36535343    -0.00350
C713        C  0.34542321  0.42361000  0.37365430    -0.12080
C714        C  0.31645809  0.38419217  0.36732976     0.01860
H715        H  0.37643969  0.35756113  0.33258562     0.14840
H716        H  0.33709484  0.44205764  0.38552177     0.14840
C717        C  0.27532861  0.36867991  0.37598748     0.36490
C718        C  0.43811315  0.43103696  0.34187311     0.36400
N719        N  0.24239507  0.35614668  0.38301943    -0.43850
N720        N  0.47096493  0.44371300  0.33460235    -0.43850
C721        C  0.43112583  0.02986031  0.17974759    -0.00260
C722        C  0.44627461  0.04106579  0.20611468    -0.12140
C723        C  0.45754844  0.07930440  0.21558786     0.01970
C724        C  0.45295086  0.10644586  0.19844462    -0.00350
C725        C  0.43810738  0.09534354  0.17198603    -0.12080
C726        C  0.42696957  0.05713040  0.16247821     0.01860
H727        H  0.44985971  0.02013555  0.21907382     0.14840
H728        H  0.43438529  0.11620825  0.15905172     0.14840
C729        C  0.41067864  0.04638286  0.13517301     0.36490
C730        C  0.47413339  0.09007809  0.24281955     0.36400
N731        N  0.39789132  0.03783688  0.11325938    -0.43850
N732        N  0.48715126  0.09862885  0.26467698    -0.43850
C733        C  0.11718040  0.11988309  0.36253313    -0.00260
C734        C  0.08122900  0.11753049  0.37147068    -0.12140
C735        C  0.07471974  0.14984526  0.36854820     0.01970
C736        C  0.10241494  0.18430860  0.35381039    -0.00350
C737        C  0.13849319  0.18680998  0.34511425    -0.12080
C738        C  0.14454557  0.15417037  0.34745816     0.01860
H739        H  0.05883147  0.09102713  0.38231867     0.14840
H740        H  0.16073359  0.21324748  0.33411009     0.14840
C741        C  0.17459745  0.15436433  0.33000954     0.36490
C742        C  0.04240624  0.14851210  0.38403033     0.36400
N743        N  0.19637621  0.15308114  0.31439465    -0.43850
N744        N  0.01842933  0.14895050  0.39793806    -0.43850
C745        C  0.26616633  0.01611644  0.02080858    -0.00260
C746        C  0.24158430  0.47598103  0.01264490    -0.12140
C747        C  0.25246569  0.44741282  0.01880894     0.01970
C748        C  0.28839177  0.45934167  0.03320801    -0.00350
C749        C  0.31283483  0.49940557  0.04156601    -0.12080
C750        C  0.30192328  0.02798437  0.03540190     0.01860
H751        H  0.21455331  0.46735572  0.00074307     0.14840
H752        H  0.33988072  0.00800870  0.05344317     0.14840
C753        C  0.32739561  0.06901943  0.04432776     0.36490
C754        C  0.22678018  0.40630411  0.01003993     0.36400
N755        N  0.34764730  0.10184963  0.05165360    -0.43850
N756        N  0.20631118  0.37339622  0.00291827    -0.43850
C757        C  0.26440084  0.19658692  0.51262976    -0.00260
C758        C  0.28136457  0.20787303  0.53855565    -0.12140
C759        C  0.29324273  0.24612215  0.54829308     0.01970
C760        C  0.28734642  0.27310847  0.53193535    -0.00350
C761        C  0.27067871  0.26193722  0.50590752    -0.12080
C762        C  0.25903278  0.22375166  0.49609024     0.01860
H763        H  0.28598670  0.18705519  0.55090164     0.14840
H764        H  0.26601004  0.28273260  0.49357477     0.14840
C765        C  0.24113924  0.21293394  0.46921441     0.36490
C766        C  0.31194954  0.25719620  0.57490646     0.36400
N767        N  0.22706639  0.20430805  0.44763291    -0.43850
N768        N  0.32682545  0.26606499  0.59623935    -0.43850
C769        C  0.43255498  0.34855653  0.68591783    -0.00260
C770        C  0.47086255  0.36248485  0.69708039    -0.12140
C771        C  0.48263066  0.33521970  0.70515079     0.01970
C772        C  0.45597896  0.29367386  0.70133642    -0.00350
C773        C  0.41754135  0.27974296  0.69040795    -0.12080
C774        C  0.40566086  0.30697006  0.68253927     0.01860
H775        H  0.49154819  0.39459120  0.69922219     0.14840
H776        H  0.39689125  0.24763915  0.68817740     0.14840
C777        C  0.36659162  0.29181145  0.66995467     0.36490
C778        C  0.02121973  0.35025997  0.71843566     0.36400
N779        N  0.33544500  0.27984549  0.65969452    -0.43850
N780        N  0.05185909  0.36215981  0.72942569    -0.43850
C781        C  0.09791819  0.36370070  0.84709592    -0.00260
C782        C  0.09127529  0.38914669  0.82991235    -0.12140
C783        C  0.10179593  0.42773741  0.83825812     0.01970
C784        C  0.11898850  0.44081432  0.86416120    -0.00350
C785        C  0.12605293  0.41550909  0.88119461    -0.12080
C786        C  0.11541105  0.37690807  0.87290183     0.01860
H787        H  0.07770295  0.37865864  0.80996797     0.14840
H788        H  0.13958628  0.42594081  0.90115632     0.14840
C789        C  0.12332066  0.35181719  0.89086766     0.36490
C790        C  0.09370438  0.45277898  0.82038108     0.36400
N791        N  0.12957837  0.33170247  0.90530521    -0.43850
N792        N  0.08729574  0.47286578  0.80602201    -0.43850
C793        C  0.17229830  0.08451564  0.17830878    -0.00260
C794        C  0.20033501  0.08493139  0.15971703    -0.12140
C795        C  0.22816847  0.07397784  0.16794210     0.01970
C796        C  0.22825720  0.06299187  0.19524149    -0.00350
C797        C  0.20001116  0.06236457  0.21372569    -0.12080
C798        C  0.17239467  0.07345919  0.20558197     0.01860
H799        H  0.20030170  0.09371950  0.13866517     0.14840
H800        H  0.19961210  0.05316468  0.23472909     0.14840
C801        C  0.14414274  0.07239349  0.22540388     0.36490
C802        C  0.25635006  0.07470992  0.14822449     0.36400
N803        N  0.12181393  0.07188199  0.24139051    -0.43850
N804        N  0.27866504  0.07498744  0.13232379    -0.43850
C805        C  0.07055385  0.39186826  0.36456323    -0.00260
C806        C  0.08130701  0.36208981  0.36643831    -0.12140
C807        C  0.12044424  0.37129460  0.36058511     0.01970
C808        C  0.14909689  0.41075087  0.35270590    -0.00350
C809        C  0.13844562  0.44061467  0.35101469    -0.12080
C810        C  0.09929084  0.43141569  0.35687088     0.01860
H811        H  0.05936830  0.33195315  0.37322368     0.14840
H812        H  0.16035980  0.47069918  0.34412455     0.14840
C813        C  0.08888546  0.46252822  0.35434610     0.36490
C814        C  0.13084595  0.34017040  0.36298120     0.36400
N815        N  0.08028577  0.48725049  0.35227228    -0.43850
N816        N  0.13950538  0.31548224  0.36494898    -0.43850
C817        C  0.23710826  0.22071442  0.03409492    -0.00260
C818        C  0.26222413  0.25828011  0.02217917    -0.12140
C819        C  0.30150667  0.26940947  0.01510246     0.01970
C820        C  0.31581750  0.24271096  0.02038251    -0.00350
C821        C  0.29079118  0.20524304  0.03246744    -0.12080
C822        C  0.25153722  0.19419061  0.03965788     0.01860
H823        H  0.25110192  0.27882675  0.01853628     0.14840
H824        H  0.30185344  0.18462230  0.03598262     0.14840
C825        C  0.22717323  0.15642081  0.05373247     0.36490
C826        C  0.32598736  0.30741968  0.00131275     0.36400
N827        N  0.20769985  0.12642660  0.06528652    -0.43850
N828        N  0.34560046  0.33765434  0.99005463    -0.43850
C829        C  0.99947029  0.24598678  0.51510802    -0.00260
C830        C  0.04031534  0.27586842  0.51417978    -0.12140
C831        C  0.07001908  0.26645375  0.52031213     0.01970
C832        C  0.05863360  0.22662413  0.52745190    -0.00350
C833        C  0.01781082  0.19670835  0.52819311    -0.12080
C834        C  0.48811684  0.20612365  0.52214024     0.01860
H835        H  0.04895985  0.30627855  0.50792990     0.14840
H836        H  0.00913900  0.16633828  0.53457332     0.14840
C837        C  0.44627771  0.17476364  0.52373815     0.36490
C838        C  0.11187076  0.29783236  0.51903570     0.36400
N839        N  0.41275735  0.14970681  0.52506175    -0.43850
N840        N  0.14541529  0.32288817  0.51796296    -0.43850
C841        C  0.39111799  0.39157359  0.86149387    -0.00260
C842        C  0.40495458  0.42955114  0.84992164    -0.12140
C843        C  0.37767179  0.44164153  0.84254900     0.01970
C844        C  0.33621285  0.41560335  0.84724352    -0.00350
C845        C  0.32235462  0.37746196  0.85858925    -0.12080
C846        C  0.34960911  0.36534500  0.86597772     0.01860
H847        H  0.43704063  0.44987576  0.84713752     0.14840
H848        H  0.29029337  0.35726456  0.86158437     0.14840
C849        C  0.33468763  0.32693604  0.87944895     0.36490
C850        C  0.39260906  0.48015018  0.82936486     0.36400
N851        N  0.32296243  0.29641190  0.89051346    -0.43850
N852        N  0.40446540  0.01087507  0.81860952    -0.43850
C853        C  0.40541717  0.06257485  0.70151468    -0.00260
C854        C  0.41174781  0.06524776  0.67338434    -0.12140
C855        C  0.44862285  0.07341078  0.66284116     0.01970
C856        C  0.47986737  0.07847588  0.68084192    -0.00350
C857        C  0.47369275  0.07630132  0.70894917    -0.12080
C858        C  0.43707316  0.06873121  0.71948994     0.01860
H859        H  0.38780307  0.06116630  0.65960004     0.14840
H860        H  0.49752163  0.08014245  0.72276439     0.14840
C861        C  0.43335207  0.06721738  0.74881689     0.36490
C862        C  0.45332210  0.07700466  0.63354134     0.36400
N863        N  0.43123619  0.06721377  0.77233439    -0.43850
N864        N  0.45665012  0.57925727  0.61005412    -0.43850
C865        C  0.29351660  0.00071595  0.71456525     0.03020
C866        C  0.33089320  0.51743725  0.70115849    -0.13130
C867        C  0.36508528  0.55122221  0.71157450     0.00520
C868        C  0.36169703  0.57112128  0.73386530    -0.11650
C869        C  0.32710017  0.55335855  0.74965846     0.03010
C870        C  0.29203238  0.51849383  0.73968591    -0.11070
H871        H  0.33449672  0.00235996  0.68371181     0.08610
H872        H  0.38780955  0.59911171  0.74035993     0.06140
H873        H  0.26480713  0.50453367  0.75180783     0.05990
C874        C  0.09218496  0.63342353  0.66850198     0.03020
C875        C  0.05487005  0.61920920  0.68158568    -0.13130
C876        C  0.01944580  0.58722793  0.67084729     0.00520
C877        C  0.02117358  0.56614868  0.64867068    -0.11650
C878        C  0.05601788  0.58137349  0.63328981     0.03010
C879        C  0.09234626  0.61479706  0.64345517    -0.11070
H880        H  0.05244394  0.63524449  0.69890472     0.08610
H881        H  0.99388124  0.53936661  0.64202962     0.06140
H882        H  0.11969329  0.62714264  0.63150492     0.05990
C883        C  0.27980160  0.97041590  0.83403847     0.03020
C884        C  0.30183659  0.95549416  0.84776755    -0.13130
C885        C  0.30673535  0.92519514  0.83638878     0.00520
C886        C  0.28834052  0.90745751  0.81204231    -0.11650
C887        C  0.26603422  0.92070867  0.79753660     0.03010
C888        C  0.26146661  0.95248359  0.80857613    -0.11070
H889        H  0.31815526  0.96937116  0.86640115     0.08610
H890        H  0.29286568  0.88378989  0.80398373     0.06140
H891        H  0.24536380  0.96405212  0.79707049     0.05990
C892        C  0.44559929  0.83649061  0.87897681     0.03020
C893        C  0.42667376  0.85295612  0.86320907    -0.13130
C894        C  0.42035477  0.88284816  0.87376622     0.00520
C895        C  0.43502277  0.89921579  0.89916832    -0.11650
C896        C  0.45464062  0.88473544  0.91534510     0.03010
C897        C  0.46015839  0.85310826  0.90528061    -0.11070
H898        H  0.41298319  0.84002606  0.84370823     0.08610
H899        H  0.42948332  0.92248111  0.90671709     0.06140
H900        H  0.47380426  0.84038341  0.91825533     0.05990
C901        C  0.44466515  0.80213096  0.50049514     0.03020
C902        C  0.46552258  0.78641480  0.51485283    -0.13130
C903        C  0.47021706  0.75575584  0.50382801     0.00520
C904        C  0.45283445  0.73875225  0.47904315    -0.11650
C905        C  0.43146964  0.75267049  0.46410658     0.03010
C906        C  0.42706014  0.78459292  0.47486508    -0.11070
H907        H  0.98116320  0.79995231  0.53374764     0.08610
H908        H  0.45745700  0.71517201  0.47094650     0.06140
H909        H  0.41183013  0.79672232  0.46294121     0.05990
C910        C  0.11132495  0.66947407  0.54503197     0.03020
C911        C  0.09269810  0.68637733  0.52938824    -0.13130
C912        C  0.08737887  0.71703684  0.53981992     0.00520
C913        C  0.10226967  0.73318575  0.56529650    -0.11650
C914        C  0.12156367  0.71832715  0.58148399     0.03010
C915        C  0.12634463  0.68619088  0.57134526    -0.11070
H916        H  0.07884053  0.67352316  0.50991167     0.08610
H917        H  0.09720921  0.75671826  0.57292754     0.06140
H918        H  0.13983931  0.67323636  0.58424423     0.05990
C919        C  0.42608162  0.79784052  0.00439804     0.03020
C920        C  0.39033466  0.78110280  0.01977208    -0.13130
C921        C  0.35410196  0.75083791  0.00898700     0.00520
C922        C  0.35284280  0.73412450  0.98384340    -0.11650
C923        C  0.38733821  0.74885360  0.96800756     0.03010
C924        C  0.42445334  0.78096047  0.97829209    -0.11070
H925        H  0.38924068  0.79427947  0.03900990     0.08610
H926        H  0.32399813  0.71063349  0.97609175     0.06140
H927        H  0.45107183  0.79395054  0.96556260     0.05990
C928        C  0.12575658  0.66581591  0.04702920     0.03020
C929        C  0.12557594  0.68384970  0.07238271    -0.13130
C930        C  0.16209334  0.71627447  0.08319055     0.00520
C931        C  0.19763282  0.73004041  0.06858003    -0.11650
C932        C  0.19807029  0.71204593  0.04438915     0.03010
C933        C  0.16261604  0.68138090  0.03311573    -0.11070
H934        H  0.09802414  0.67172571  0.08408161     0.08610
H935        H  0.22601612  0.75398538  0.07659333     0.06140
H936        H  0.16495715  0.66739409  0.01460896     0.05990
C937        C  0.45956645  0.83429819  0.37920323     0.03020
C938        C  0.49598487  0.85109863  0.36459878    -0.13130
C939        C  0.03146436  0.88233080  0.37550941     0.00520
C940        C  0.03124402  0.89927496  0.40027374    -0.11650
C941        C  0.49607976  0.88431125  0.41548063     0.03010
C942        C  0.45966990  0.85160335  0.40489304    -0.11070
H943        H  0.49806992  0.83775647  0.34570213     0.08610
H944        H  0.05955591  0.92334719  0.40827367     0.06140
H945        H  0.43248385  0.83862330  0.41704487     0.05990
C946        C  0.25963670  0.96624208  0.33619519     0.03020
C947        C  0.22378129  0.95011597  0.35142169    -0.13130
C948        C  0.18745927  0.91971318  0.34080388     0.00520
C949        C  0.18610748  0.90282205  0.31567042    -0.11650
C950        C  0.22059139  0.91688079  0.29992638     0.03010
C951        C  0.25787930  0.94892279  0.31019124    -0.11070
H952        H  0.22284267  0.96346080  0.37062301     0.08610
H953        H  0.15722241  0.87941306  0.30792771     0.06140
H954        H  0.28460110  0.96139268  0.29758543     0.05990
C955        C  0.11325074  0.63724853  0.16626408     0.03020
C956        C  0.13748211  0.62418569  0.17908656    -0.13130
C957        C  0.14199792  0.59350043  0.16795390     0.00520
C958        C  0.12100893  0.57372169  0.14475714    -0.11650
C959        C  0.09795873  0.58629048  0.13059302     0.03010
C960        C  0.09348882  0.61815686  0.14145344    -0.11070
H961        H  0.15574121  0.63991802  0.19668186     0.08610
H962        H  0.12421611  0.54901077  0.13717575     0.06140
H963        H  0.07635959  0.62888470  0.13028813     0.05990
C964        C  0.27910290  0.00350916  0.21124457     0.03020
C965        C  0.26033593  0.52063039  0.19594371    -0.13130
C966        C  0.25780218  0.55316002  0.20601195     0.00520
C967        C  0.27654543  0.57132762  0.23025162    -0.11650
C968        C  0.29297273  0.55422297  0.24691951     0.03010
C969        C  0.29530327  0.52053691  0.23725885    -0.11070
H970        H  0.24393280  0.00631855  0.17743841     0.08610
H971        H  0.27511307  0.59736124  0.23717641     0.06140
H972        H  0.30759053  0.50660503  0.25035936     0.05990
C973        C  0.04122940  0.75213984  0.83450627     0.03020
C974        C  0.05726596  0.78920141  0.84818942    -0.13130
C975        C  0.08795755  0.82435493  0.83659377     0.00520
C976        C  0.10549496  0.82327266  0.81236221    -0.11650
C977        C  0.09110148  0.78764875  0.79787699     0.03010
C978        C  0.05870472  0.75143844  0.80899687    -0.11070
H979        H  0.04358361  0.79187532  0.86674514     0.08610
H980        H  0.12995280  0.85132648  0.80435594     0.06140
H981        H  0.04621831  0.72374049  0.79745824     0.05990
C982        C  0.17360331  0.55174309  0.87901457     0.03020
C983        C  0.15787399  0.51551516  0.86427144    -0.13130
C984        C  0.12753429  0.97945608  0.87523399     0.00520
C985        C  0.10971193  0.97887748  0.89977427    -0.11650
C986        C  0.12391257  0.51350069  0.91524992     0.03010
C987        C  0.15609882  0.55052645  0.90486082    -0.11070
H988        H  0.17183228  0.51411627  0.84547246     0.08610
H989        H  0.08557588  0.95029250  0.90736541     0.06140
H990        H  0.16852909  0.57743546  0.91725828     0.05990
C991        C  0.37764036  0.90347720  0.66904163     0.03020
C992        C  0.39386042  0.88401027  0.68441974    -0.13130
C993        C  0.42355946  0.87758238  0.67360241     0.00520
C994        C  0.43999691  0.89261233  0.64825748    -0.11650
C995        C  0.42598641  0.91301646  0.63241405     0.03010
C996        C  0.39442937  0.91857384  0.64277884    -0.11070
H997        H  0.38095952  0.87014002  0.70388085     0.08610
H998        H  0.46313802  0.88697670  0.64055925     0.06140
H999        H  0.38196773  0.93277157  0.63009894     0.05990
C1000       C  0.01095507  0.73769423  0.71487879     0.03020
C1001       C  0.99564435  0.75920206  0.70097012    -0.13130
C1002       C  0.46555145  0.76436477  0.71242324     0.00520
C1003       C  0.44815200  0.74648217  0.73695354    -0.11650
C1004       C  0.46159855  0.72441682  0.75153208     0.03010
C1005       C  0.49331287  0.71974981  0.74047027    -0.11070
H1006       H  0.00917378  0.77507434  0.68214626     0.08610
H1007       H  0.42458744  0.75115944  0.74505789     0.06140
H1008       H  0.00510847  0.70394289  0.75207789     0.05990
C1009       C  0.20826569  0.58495174  0.50047236     0.03020
C1010       C  0.22389535  0.62212646  0.51396605    -0.13130
C1011       C  0.25460352  0.65722417  0.50233065     0.00520
C1012       C  0.27313574  0.65589942  0.47868162    -0.11650
C1013       C  0.25848686  0.62036212  0.46410592     0.03010
C1014       C  0.22591754  0.58420998  0.47508037    -0.11070
H1015       H  0.20989739  0.62488928  0.53233502     0.08610
H1016       H  0.29806091  0.68383081  0.47090616     0.06140
H1017       H  0.21344631  0.55653554  0.46351721     0.05990
C1018       C  0.34110641  0.88449801  0.54511920     0.03020
C1019       C  0.32590427  0.84773197  0.53112439    -0.13130
C1020       C  0.29602785  0.81195165  0.54265429     0.00520
C1021       C  0.27751307  0.81212919  0.56666118    -0.11650
C1022       C  0.29153373  0.84719295  0.58162926     0.03010
C1023       C  0.32356790  0.88400087  0.57083604    -0.11070
H1024       H  0.33989096  0.84581000  0.51248842     0.08610
H1025       H  0.25322716  0.78374313  0.57438936     0.06140
H1026       H  0.33580472  0.91130257  0.58280463     0.05990
C1027       C  0.21024917  0.56979892  0.00371504     0.03020
C1028       C  0.22683507  0.55086060  0.01934719    -0.13130
C1029       C  0.25753826  0.54565646  0.00898030     0.00520
C1030       C  0.27438792  0.56117742  0.98380481    -0.11650
C1031       C  0.25964136  0.58055781  0.96759730     0.03010
C1032       C  0.22734617  0.58519159  0.97758001    -0.11070
H1033       H  0.21353434  0.53645344  0.03860340     0.08610
H1034       H  0.29817835  0.55632212  0.97638553     0.06140
H1035       H  0.21448164  0.59874470  0.96465254     0.05990
C1036       C  0.34308385  0.90332286  0.04742568     0.03020
C1037       C  0.32789694  0.92472090  0.03316757    -0.13130
C1038       C  0.29749059  0.92970215  0.04422406     0.00520
C1039       C  0.27994235  0.91208865  0.06878074    -0.11650
C1040       C  0.29352949  0.89046657  0.08372753     0.03010
C1041       C  0.32532572  0.88572375  0.07300776    -0.11070
H1042       H  0.34172237  0.94061091  0.01440569     0.08610
H1043       H  0.25623639  0.91674029  0.07664604     0.06140
H1044       H  0.33715475  0.87019386  0.08490041     0.05990
C1045       C  0.17523865  0.56574455  0.37897740     0.03020
C1046       C  0.15529130  0.58116032  0.36324938    -0.13130
C1047       C  0.12942135  0.59240387  0.37550583     0.00520
C1048       C  0.11868530  0.58181547  0.40273960    -0.11650
C1049       C  0.13093437  0.55889649  0.41737574     0.03010
C1050       C  0.16084340  0.55203398  0.40586647    -0.11070
H1051       H  0.16229963  0.58674042  0.34190464     0.08610
H1052       H  0.10016934  0.59147493  0.41296894     0.06140
H1053       H  0.17387782  0.53791823  0.41805054     0.05990
C1054       C  0.04583801  0.73977213  0.33653537     0.03020
C1055       C  0.06525307  0.72396929  0.35253701    -0.13130
C1056       C  0.09027420  0.71150364  0.34041033     0.00520
C1057       C  0.10041257  0.72065861  0.31297603    -0.11650
C1058       C  0.08869349  0.74364606  0.29805139     0.03010
C1059       C  0.05979481  0.75204519  0.30944759    -0.11070
H1060       H  0.05830981  0.71873078  0.37394606     0.08610
H1061       H  0.11811991  0.70990163  0.30285976     0.06140
H1062       H  0.04703009  0.76616171  0.29697772     0.05990
C1063       C  0.00673851  0.71801569  0.21108436     0.03020
C1064       C  0.49159368  0.68115589  0.19718669    -0.13130
C1065       C  0.46130779  0.64548698  0.20863517     0.00520
C1066       C  0.44233428  0.64602196  0.23231991    -0.11650
C1067       C  0.45690125  0.68103777  0.24739474     0.03010
C1068       C  0.48914600  0.71767734  0.23669558    -0.11070
H1069       H  0.00594994  0.67907624  0.17878619     0.08610
H1070       H  0.41765157  0.61782108  0.23996503     0.06140
H1071       H  0.00160582  0.74494300  0.24872195     0.05990
C1072       C  0.37422142  0.91813697  0.16803286     0.03020
C1073       C  0.39008452  0.95541348  0.18143975    -0.13130
C1074       C  0.42141870  0.99024917  0.16995501     0.00520
C1075       C  0.44035068  0.98841312  0.14666222    -0.11650
C1076       C  0.42511769  0.95287139  0.13202640     0.03010
C1077       C  0.39201660  0.91703203  0.14282192    -0.11070
H1078       H  0.37579630  0.95850683  0.19954190     0.08610
H1079       H  0.46576930  0.51607068  0.13899250     0.06140
H1080       H  0.37919227  0.88938563  0.13119442     0.05990
C1081       C  0.27472641  0.75089667  0.33572104     0.03020
C1082       C  0.29349284  0.78631597  0.35135475    -0.13130
C1083       C  0.29822282  0.82215998  0.34107278     0.00520
C1084       C  0.28213813  0.82346386  0.31608453    -0.11650
C1085       C  0.26298531  0.78939948  0.29981608     0.03010
C1086       C  0.25927722  0.75267847  0.30955543    -0.11070
H1087       H  0.30823188  0.78749422  0.37050261     0.08610
H1088       H  0.28654185  0.85209595  0.30879615     0.06140
H1089       H  0.24644380  0.72665208  0.29634741     0.05990
C1090       C  0.43882218  0.54949514  0.37995592     0.03020
C1091       C  0.41881479  0.51319648  0.36537497    -0.13130
C1092       C  0.41522993  0.97811837  0.37612755     0.00520
C1093       C  0.43326898  0.97839726  0.40060278    -0.11650
C1094       C  0.45340879  0.51339459  0.41598597     0.03010
C1095       C  0.45629712  0.54944542  0.40569751    -0.11070
H1096       H  0.40265578  0.51090730  0.34667466     0.08610
H1097       H  0.42969314  0.95024178  0.40822779     0.06140
H1098       H  0.47018955  0.57628993  0.41812483     0.05990
C1099       C  0.27358551  0.71741309  0.71489338     0.03020
C1100       C  0.25295425  0.68017263  0.70127341    -0.13130
C1101       C  0.25237031  0.64609168  0.71179710     0.00520
C1102       C  0.27541029  0.64937395  0.73432485    -0.11650
C1103       C  0.29230645  0.68383484  0.75016295     0.03010
C1104       C  0.29274844  0.71885269  0.74015657    -0.11070
H1105       H  0.23446030  0.67654647  0.68357413     0.08610
H1106       H  0.27686623  0.62317583  0.74096448     0.06140
H1107       H  0.30609851  0.74598672  0.75234695     0.05990
C1108       C  0.10921108  0.91812884  0.66830914     0.03020
C1109       C  0.09042801  0.91800493  0.64317805    -0.13130
C1110       C  0.09366339  0.95430478  0.63298811     0.00520
C1111       C  0.11360020  0.98909291  0.64837085    -0.11650
C1112       C  0.13629667  0.99076161  0.67073060     0.03010
C1113       C  0.13255731  0.95538462  0.68154817    -0.11070
H1114       H  0.07517197  0.89070341  0.63119168     0.08610
H1115       H  0.11438909  0.51639572  0.64165393     0.06140
H1116       H  0.15088129  0.95782656  0.69909017     0.05990
C1117       C  0.42581097  0.56591048  0.50041541     0.03020
C1118       C  0.38871045  0.54427195  0.51410165    -0.13130
C1119       C  0.35361865  0.53993010  0.50258737     0.00520
C1120       C  0.35481129  0.55969128  0.47881296    -0.11650
C1121       C  0.39029378  0.58089665  0.46417499     0.03010
C1122       C  0.42647746  0.58453666  0.47503296    -0.11070
H1123       H  0.38596370  0.52744030  0.53253262     0.08610
H1124       H  0.32683467  0.55648344  0.47105170     0.06140
H1125       H  0.45410715  0.59996833  0.46338892     0.05990
C1126       C  0.12521662  0.89977503  0.54517597     0.03020
C1127       C  0.16187669  0.92156679  0.53096752    -0.13130
C1128       C  0.19776393  0.92776870  0.54240785     0.00520
C1129       C  0.19786703  0.90937106  0.56657570    -0.11650
C1130       C  0.16294275  0.88807111  0.58168918     0.03010
C1131       C  0.12597869  0.88286566  0.57098051    -0.11070
H1132       H  0.16364518  0.93734474  0.51220353     0.08610
H1133       H  0.22637256  0.91384023  0.57426354     0.06140
H1134       H  0.09876266  0.86755699  0.58306276     0.05990
C1135       C  0.29126177  0.73332789  0.21180422     0.03020
C1136       C  0.32738146  0.75442066  0.19694163    -0.13130
C1137       C  0.36356554  0.76068604  0.20779013     0.00520
C1138       C  0.36480275  0.74427999  0.23262440    -0.11650
C1139       C  0.33011977  0.72264407  0.24804245     0.03010
C1140       C  0.29279622  0.71696822  0.23764559    -0.11070
H1141       H  0.32856089  0.76943851  0.17793383     0.08610
H1142       H  0.39371422  0.74986820  0.24030158     0.06140
H1143       H  0.26585829  0.70170247  0.25000383     0.05990
C1144       C  0.09166592  0.90005111  0.16860774     0.03020
C1145       C  0.05544735  0.88059256  0.18346831    -0.13130
C1146       C  0.02017911  0.87675076  0.17271227     0.00520
C1147       C  0.02022378  0.89388453  0.14791920    -0.11650
C1148       C  0.05509605  0.91347183  0.13236552     0.03010
C1149       C  0.09142296  0.91705654  0.14278308    -0.11070
H1150       H  0.05331197  0.86496402  0.20237799     0.08610
H1151       H  0.99196019  0.89001455  0.14020140     0.06140
H1152       H  0.11840102  0.93099076  0.13040527     0.05990
C1153       C  0.44127849  0.58360775  0.00351647     0.03020
C1154       C  0.46296960  0.61979004  0.01826263    -0.13130
C1155       C  0.46937399  0.65605194  0.00746696     0.00520
C1156       C  0.45278714  0.65725069  0.98266379    -0.11650
C1157       C  0.43085632  0.62256123  0.96727317     0.03010
C1158       C  0.42485902  0.58520586  0.97771863    -0.11070
H1159       H  0.47812812  0.62086840  0.03719256     0.08610
H1160       H  0.45853714  0.68616032  0.97494190     0.06140
H1161       H  0.40929049  0.55825173  0.96541737     0.05990
C1162       C  0.10867393  0.88422599  0.04573581     0.03020
C1163       C  0.09023276  0.84830349  0.03052121    -0.13130
C1164       C  0.08732042  0.81321635  0.04091278     0.00520
C1165       C  0.10445014  0.81337071  0.06578157    -0.11650
C1166       C  0.12274827  0.84787834  0.08177154     0.03010
C1167       C  0.12548671  0.88392340  0.07163043    -0.11070
H1168       H  0.07457579  0.84613234  0.01160923     0.08610
H1169       H  0.10118169  0.78532223  0.07337329     0.06140
H1170       H  0.13849953  0.91056673  0.08431297     0.05990
C1171       C  0.25821895  0.73176089  0.83422678     0.03020
C1172       C  0.25941332  0.75096888  0.80900322    -0.13130
C1173       C  0.22359506  0.74825973  0.79824633     0.00520
C1174       C  0.18815275  0.72799454  0.81303524    -0.11650
C1175       C  0.18601053  0.70644678  0.83610198     0.03010
C1176       C  0.22078461  0.70969591  0.84747171    -0.11070
H1177       H  0.28712167  0.76617396  0.79743108     0.08610
H1178       H  0.16073864  0.72644183  0.80562542     0.06140
H1179       H  0.21759262  0.69195301  0.86550215     0.05990
C1180       C  0.45786938  0.56613966  0.87946163     0.03020
C1181       C  0.49469270  0.58802991  0.86542539    -0.13130
C1182       C  0.03022777  0.59242577  0.87637988     0.00520
C1183       C  0.02938740  0.57174982  0.89963722    -0.11650
C1184       C  0.49468390  0.55183815  0.91510482     0.03010
C1185       C  0.45819779  0.54826817  0.90490820    -0.11070
H1186       H  0.49688432  0.60511674  0.84724421     0.08610
H1187       H  0.05727265  0.57407990  0.90676782     0.06140
H1188       H  0.43110858  0.53355230  0.91715616     0.05990
O1189       O  0.36606367  0.59014684  0.78834868    -0.80240
O1190       O  0.23516720  0.61429207  0.88718746    -0.81790
O1191       O  0.27633329  0.53077997  0.82796172    -0.78810
O1192       O  0.28998935  0.64479518  0.78875559    -0.77200
O1193       O  0.33869747  0.71152465  0.78643931    -0.78990
O1194       O  0.30261506  0.52212045  0.86759313    -0.79920
O1195       O  0.22729564  0.58153427  0.84681691    -0.81240
O1196       O  0.29928095  0.57158115  0.78591638    -0.81530
Eu1197     Eu  0.29449261  0.60261786  0.82691906     2.39200
O1198       O  0.31035223  0.66581391  0.84276511    -0.89040
O1199       O  0.34447328  0.58857658  0.84278164    -0.92650
C1200       C  0.33059854  0.57206929  0.77659816     1.02040
C1201       C  0.21370637  0.58596545  0.86997606     1.01860
C1202       C  0.28476810  0.50946171  0.84418266     1.01810
C1203       C  0.30753671  0.68027785  0.77710470     0.99660
H1204       H  0.27154298  0.57748523  0.88206617     0.29410
O1205       O  0.29565914  0.60026095  0.87499501    -1.01430
H1206       H  0.35932187  0.65240278  0.79214642     0.29450
O1207       O  0.35905648  0.65196986  0.81182248    -1.03970
O1208       O  0.34726341  0.71049051  0.92976405    -0.81200
O1209       O  0.48018205  0.68857442  0.82846748    -0.80740
O1210       O  0.29873693  0.57953930  0.92968606    -0.79170
O1211       O  0.32197552  0.73508021  0.82847124    -0.82510
O1212       O  0.42276698  0.72385255  0.78968809    -0.80370
O1213       O  0.39533429  0.56459460  0.88739470    -0.79020
O1214       O  0.43126562  0.66285334  0.92949617    -0.80540
O1215       O  0.44651340  0.77517600  0.88749923    -0.82460
O1216       O  0.38421517  0.59552043  0.93105158    -0.79200
O1217       O  0.42140844  0.78293026  0.84706379    -0.81880
O1218       O  0.27785580  0.62582662  0.93084897    -0.77610
O1219       O  0.42852838  0.59032830  0.84715569    -0.77640
O1220       O  0.44028407  0.67524933  0.78656375    -0.77290
O1221       O  0.28585341  0.70685434  0.86733469    -0.80790
O1222       O  0.41467967  0.73137126  0.93132863    -0.80210
O1223       O  0.48834303  0.72447066  0.86740592    -0.78540
Eu1224     Eu  0.30850076  0.66423722  0.89049385     2.39770
Eu1225     Eu  0.40782344  0.63642539  0.82686985     2.39570
Eu1226     Eu  0.34552943  0.58762567  0.89061275     2.38400
Eu1227     Eu  0.37477865  0.71611341  0.82736974     2.39880
Eu1228     Eu  0.42298474  0.70193750  0.89069343     2.39790
O1229       O  0.42238102  0.70042653  0.84294372    -0.92950
O1230       O  0.35905916  0.65124869  0.90521878    -0.91850
C1231       C  0.38298747  0.72964087  0.94109079     1.02220
C1232       C  0.50144924  0.71858940  0.84449060     1.00930
C1233       C  0.27935201  0.59578191  0.94076280     1.00320
C1234       C  0.29176161  0.72583926  0.84433286     1.02340
C1235       C  0.44104626  0.70711106  0.77786514     1.01260
C1236       C  0.42383902  0.57198149  0.87031234     1.00100
C1237       C  0.41480995  0.62708534  0.94070586     1.00160
C1238       C  0.43961225  0.79652324  0.87020803     1.02780
H1239       H  0.43227766  0.63807007  0.88211607     0.30150
O1240       O  0.40956507  0.63935354  0.87498453    -1.05110
H1241       H  0.37297836  0.73859100  0.88253714     0.32200
O1242       O  0.37148792  0.71458132  0.87538715    -1.07680
O1243       O  0.45325245  0.92342502  0.95326241    -0.80240
O1244       O  0.10914026  0.94628038  0.05333086    -0.81790
O1245       O  0.08438435  0.97327865  0.95317372    -0.78810
O1246       O  0.48814507  0.85979630  0.99590202    -0.77200
O1247       O  0.45498158  0.85197356  0.03609313    -0.78990
O1248       O  0.10585423  0.54073242  0.95168076    -0.79920
O1249       O  0.08201127  0.91155941  0.01382550    -0.81240
O1250       O  0.49971318  0.90274931  0.95198385    -0.81530
Eu1251     Eu  0.03775574  0.93317673  0.99223827     2.39200
O1252       O  0.03883584  0.93421926  0.04002401    -0.89040
O1253       O  0.02455065  0.98342622  0.97743455    -0.92650
C1254       C  0.46962230  0.90421588  0.94215146     1.02040
C1255       C  0.10104784  0.91710111  0.03674120     1.01860
C1256       C  0.10404843  0.00907322  0.94193819     1.01810
C1257       C  0.45984313  0.83830212  0.01313711     0.99660
H1258       H  0.11169097  0.99706107  0.00042002     0.29410
O1259       O  0.08776022  0.99572516  0.00761076    -1.01430
H1260       H  0.45088985  0.89589392  0.00064391     0.29450
O1261       O  0.47359361  0.92004084  0.00776389    -1.03970
O1262       O  0.09672486  0.54666147  0.09287106    -0.81200
O1263       O  0.43867125  0.52051309  0.99540834    -0.80740
O1264       O  0.14860586  0.57042192  0.99532842    -0.79170
O1265       O  0.51592660  0.91203963  0.09399177    -0.82510
O1266       O  0.40352801  0.90013106  0.05418139    -0.80370
O1267       O  0.03460078  0.55276203  0.95314015    -0.79020
O1268       O  0.06243564  0.60461358  0.05382246    -0.80540
O1269       O  0.46290121  0.49120097  0.09357455    -0.82460
O1270       O  0.09727820  0.61280273  0.01437837    -0.79200
O1271       O  0.44438652  0.92460146  0.09656369    -0.81880
O1272       O  0.15621511  0.54462936  0.03551378    -0.77610
O1273       O  0.46700534  0.50645115  0.95164858    -0.77640
O1274       O  0.39530905  0.92651087  0.01448431    -0.77290
O1275       O  0.08272580  0.96059148  0.09635040    -0.80790
O1276       O  0.04821167  0.56436335  0.09601700    -0.80210
O1277       O  0.46352537  0.55281230  0.03599930    -0.78540
Eu1278     Eu  0.08923563  0.99836700  0.05557560     2.39770
Eu1279     Eu  0.46095632  0.96992072  0.99231880     2.39570
Eu1280     Eu  0.07524815  0.54711480  0.99213802     2.38400
Eu1281     Eu  0.47555517  0.91886427  0.05581416     2.39880
Eu1282     Eu  0.01003796  0.53228765  0.05562932     2.39790
O1283       O  0.46167885  0.96893790  0.04006468    -0.92950
O1284       O  0.07409687  0.54643166  0.03988693    -0.91850
C1285       C  0.08009097  0.56510176  0.10462836     1.02220
C1286       C  0.44586500  0.54879072  0.01265563     1.00930
C1287       C  0.16995272  0.56326641  0.01248389     1.00320
C1288       C  0.05140075  0.92926121  0.10558734     1.02340
C1289       C  0.38237826  0.90854011  0.03776463     1.01260
C1290       C  0.99881461  0.53638320  0.94184858     1.00100
C1291       C  0.09196644  0.62591852  0.03744075     1.00160
C1292       C  0.44457593  0.95596340  0.10545786     1.02780
H1293       H  0.01164815  0.55692759  0.00048771     0.30150
O1294       O  0.01275926  0.53414519  0.00762696    -1.05110
H1295       H  0.02535824  0.98332556  0.09063635     0.32200
O1296       O  0.02511855  0.98321350  0.07095519    -1.07680
O1297       O  0.43153106  0.71427922  0.42598441    -0.80240
O1298       O  0.27537398  0.68962464  0.32724338    -0.81790
O1299       O  0.39664252  0.77268931  0.38622793    -0.78810
O1300       O  0.29675767  0.65902966  0.42582980    -0.77200
O1301       O  0.27835937  0.59246372  0.42868591    -0.78990
O1302       O  0.43175600  0.78087600  0.34691791    -0.79920
O1303       O  0.29835282  0.72115869  0.36821027    -0.81240
O1304       O  0.38295985  0.73195385  0.42871026    -0.81530
Eu1305     Eu  0.34443537  0.70027456  0.38813852     2.39200
O1306       O  0.29592229  0.63684860  0.37226592    -0.89040
O1307       O  0.40858416  0.71461728  0.37254646    -0.92650
C1308       C  0.41463465  0.73248569  0.43764999     1.02040
C1309       C  0.28120241  0.71720103  0.34466948     1.01860
C1310       C  0.42616723  0.79405777  0.36984220     1.01810
C1311       C  0.27830785  0.62370108  0.43759685     0.99660
H1312       H  0.34686754  0.72479348  0.33312509     0.29410
O1313       O  0.34756038  0.70176243  0.34019438    -1.01430
H1314       H  0.35957541  0.65128288  0.42310510     0.29450
O1315       O  0.35950796  0.65129064  0.40342249    -1.03970
O1316       O  0.29058719  0.59213527  0.28506030    -0.81200
O1317       O  0.43885960  0.61118620  0.38706219    -0.80740
O1318       O  0.37037118  0.72271827  0.28583887    -0.79170
O1319       O  0.23740880  0.56577402  0.38549759    -0.82510
O1320       O  0.35158091  0.58075248  0.42589969    -0.80370
O1321       O  0.48371994  0.73954545  0.32899891    -0.79020
O1322       O  0.41856069  0.64155742  0.28572566    -0.80540
O1323       O  0.32232023  0.52791181  0.32799224    -0.82460
O1324       O  0.44005174  0.70897152  0.28402389    -0.79200
O1325       O  0.28953138  0.51988355  0.36834962    -0.81880
O1326       O  0.30287534  0.67596673  0.28408361    -0.77610
O1327       O  0.49164976  0.71247425  0.36852078    -0.77640
O1328       O  0.41830097  0.62939853  0.42893741    -0.77290
O1329       O  0.22921071  0.59384169  0.34656532    -0.80790
O1330       O  0.33649862  0.57069081  0.28431702    -0.80090
O1331       O  0.41659619  0.57897161  0.34631746    -0.78540
Eu1332     Eu  0.29575331  0.63777082  0.32439632     2.39770
Eu1333     Eu  0.42392498  0.66671115  0.38822841     2.39570
Eu1334     Eu  0.41018829  0.71531774  0.32480153     2.38400
Eu1335     Eu  0.31002699  0.58689085  0.38807911     2.39880
Eu1336     Eu  0.37281816  0.60126549  0.32491275     2.39790
O1337       O  0.37343955  0.60267257  0.37257104    -0.92950
O1338       O  0.35964416  0.65151051  0.31002270    -0.91850
C1339       C  0.30705760  0.57284489  0.27406204     1.02220
C1340       C  0.43266314  0.58294828  0.37022572     1.00930
C1341       C  0.33457720  0.70648609  0.27455103     1.00320
C1342       C  0.21583449  0.57390536  0.36926463     1.02340
C1343       C  0.38693750  0.59774051  0.43774700     1.01260
C1344       C  0.50537393  0.73230120  0.34585856     1.00100
C1345       C  0.43786700  0.67716689  0.27426839     1.00160
C1346       C  0.29395745  0.50636574  0.34517943     1.02780
H1347       H  0.44726957  0.66572953  0.33300603     0.30150
O1348       O  0.42317608  0.66409198  0.34016907    -1.05110
H1349       H  0.28580570  0.56416033  0.33281733     0.32200
O1350       O  0.30852627  0.58818072  0.34004741    -1.07680
O1351       O  0.23020123  0.93935863  0.72060053    -0.80240
O1352       O  0.25233843  0.80756073  0.61974178    -0.81790
O1353       O  0.31647285  0.90500787  0.66115179    -0.78810
O1354       O  0.20294707  0.88868325  0.61968272    -0.77200
O1355       O  0.13546356  0.84194546  0.61796601    -0.78990
O1356       O  0.32426145  0.87949797  0.70140643    -0.79920
O1357       O  0.27344831  0.87492586  0.61784986    -0.81240
O1358       O  0.26654151  0.94734025  0.68192378    -0.81530
Eu1359     Eu  0.24328807  0.88191666  0.65846205     2.39200
O1360       O  0.19244209  0.81809431  0.64385655    -0.89040
O1361       O  0.24191158  0.88133220  0.70621725    -0.92650
C1362       C  0.26045503  0.96053428  0.70473299     1.02040
C1363       C  0.27178176  0.84320887  0.60830635     1.01860
C1364       C  0.33783030  0.89779014  0.67822527     1.01810
C1365       C  0.16717106  0.87228303  0.60835349     0.99660
H1366       H  0.27958644  0.83150652  0.66673057     0.29410
O1367       O  0.25570110  0.83031964  0.67387244    -1.01430
H1368       H  0.17979167  0.89146844  0.66666536     0.29450
O1369       O  0.18070637  0.86864796  0.67391526    -1.03970
O1370       O  0.15534694  0.69451196  0.66123550    -0.81200
O1371       O  0.12973195  0.82619178  0.75958665    -0.80740
O1372       O  0.27617711  0.78074997  0.72079260    -0.79170
O1373       O  0.12064969  0.75750057  0.61945211    -0.82510
O1374       O  0.10628595  0.85482353  0.66113345    -0.80370
O1375       O  0.26530211  0.88167312  0.75946855    -0.79020
O1376       O  0.18493956  0.74753129  0.75984062    -0.80540
O1377       O  0.07125114  0.73412762  0.72095694    -0.82460
O1378       O  0.25161022  0.79632383  0.76272016    -0.79200
O1379       O  0.06328346  0.76167774  0.68172292    -0.81880
O1380       O  0.24722790  0.74425136  0.68217488    -0.77610
O1381       O  0.21663923  0.89917178  0.76250802    -0.77640
O1382       O  0.13257959  0.88863048  0.70110297    -0.77290
O1383       O  0.16707946  0.73677914  0.61820591    -0.80790
O1384       O  0.12176012  0.68647849  0.70129449    -0.80210
O1385       O  0.11159158  0.75969240  0.76269853    -0.78540
Eu1386     Eu  0.20541568  0.76763403  0.65859536     2.39770
Eu1387     Eu  0.17785233  0.86716046  0.72197047     2.39570
Eu1388     Eu  0.25725452  0.83350504  0.72189714     2.38400
Eu1389     Eu  0.12870084  0.80449647  0.65848783     2.39880
Eu1390     Eu  0.14329490  0.75349332  0.72210134     2.39790
O1391       O  0.12963368  0.80372720  0.70627872    -0.92950
O1392       O  0.20663968  0.76933758  0.70634387    -0.91850
C1393       C  0.12649750  0.67309995  0.67809417     1.02220
C1394       C  0.11126345  0.79091465  0.77143924     1.00930
C1395       C  0.26664680  0.75039313  0.70502917     1.00320
C1396       C  0.13688105  0.73810289  0.60834421     1.02340
C1397       C  0.11423069  0.88379790  0.67790791     1.01260
C1398       C  0.24855081  0.89997278  0.77124694     1.00100
C1399       C  0.22030958  0.76474415  0.77165606     1.00160
C1400       C  0.05021386  0.74306066  0.70484983     1.02780
H1401       H  0.19303207  0.81817260  0.75692289     0.30150
O1402       O  0.19288508  0.81803425  0.73723910    -1.05110
H1403       H  0.11850198  0.73099298  0.66683699     0.32200
O1404       O  0.14138120  0.75487933  0.67404489    -1.07680
O1405       O  0.20082016  0.75533410  0.12138270    -0.80240
O1406       O  0.06797517  0.78076917  0.21884000    -0.81790
O1407       O  0.10848240  0.69674368  0.16017683    -0.78810
O1408       O  0.12060454  0.80856195  0.12026783    -0.77200
O1409       O  0.16898072  0.87541992  0.11834512    -0.78990
O1410       O  0.13560738  0.68881452  0.19967527    -0.79920
O1411       O  0.06021111  0.74731547  0.17875752    -0.81240
O1412       O  0.13420748  0.73694934  0.11828391    -0.81530
Eu1413     Eu  0.12735398  0.76856816  0.15873136     2.39200
O1414       O  0.14245560  0.83163043  0.17481936    -0.89040
O1415       O  0.17748733  0.75507111  0.17499823    -0.92650
C1416       C  0.16552349  0.73675261  0.10953219     1.02040
C1417       C  0.04663154  0.75214052  0.20179820     1.01860
C1418       C  0.11751386  0.67589564  0.17637987     1.01810
C1419       C  0.13794332  0.84408273  0.10879211     0.99660
H1420       H  0.10459604  0.74393839  0.21370652     0.29410
O1421       O  0.12876988  0.76679656  0.20679681    -1.01430
H1422       H  0.19203371  0.81832755  0.12413667     0.29450
O1423       O  0.19179745  0.81818985  0.14381763    -1.03970
O1424       O  0.18018217  0.87702877  0.26203580    -0.81200
O1425       O  0.31312497  0.85493799  0.16154612    -0.80740
O1426       O  0.12947049  0.74436256  0.26067432    -0.79170
O1427       O  0.15429170  0.90161745  0.16134045    -0.82510
O1428       O  0.25478153  0.89043918  0.12171501    -0.80370
O1429       O  0.22829968  0.73111492  0.21984743    -0.79020
O1430       O  0.26369498  0.82965101  0.26197698    -0.80540
O1431       O  0.27890867  0.94160007  0.21956741    -0.82460
O1432       O  0.21694779  0.76220204  0.26333105    -0.79200
O1433       O  0.25277926  0.94923196  0.17951184    -0.81880
O1434       O  0.10864305  0.79061529  0.26217778    -0.77610
O1435       O  0.26125281  0.75679166  0.17954741    -0.77640
O1436       O  0.27261330  0.84199286  0.11902424    -0.77290
O1437       O  0.11950875  0.87437798  0.20080719    -0.80790
O1438       O  0.24775817  0.89877886  0.26339409    -0.80210
O1439       O  0.32090745  0.89074678  0.20046205    -0.78540
Eu1440     Eu  0.14121874  0.83043900  0.22269921     2.39770
Eu1441     Eu  0.24081873  0.80314991  0.15938663     2.39570
Eu1442     Eu  0.17833993  0.75409228  0.22279246     2.38400
Eu1443     Eu  0.20666530  0.88219139  0.15933081     2.39880
Eu1444     Eu  0.25531943  0.86839500  0.22302271     2.39790
O1445       O  0.25470852  0.86705631  0.17521689    -0.92950
O1446       O  0.19162441  0.81752527  0.23795137    -0.91850
C1447       C  0.21603034  0.89687619  0.27320661     1.02220
C1448       C  0.33422465  0.88482636  0.17769120     1.00930
C1449       C  0.10937555  0.75992444  0.27160301     1.00320
C1450       C  0.12495328  0.89324785  0.17784366     1.02340
C1451       C  0.27312333  0.87362037  0.11010289     1.01260
C1452       C  0.25677966  0.73855228  0.20271646     1.00100
C1453       C  0.24734347  0.79384883  0.27309746     1.00160
C1454       C  0.27172069  0.96295609  0.20246866     1.02780
H1455       H  0.26509341  0.80468525  0.21460666     0.30150
O1456       O  0.24239692  0.80595713  0.20742404    -1.05110
H1457       H  0.20518725  0.90457814  0.21457992     0.32200
O1458       O  0.20382358  0.88065884  0.20737429    -1.07680
O1459       O  0.01629556  0.54273824  0.59502838    -0.80240
O1460       O  0.14738409  0.52146676  0.49417787    -0.81790
O1461       O  0.09476203  0.49394926  0.59478973    -0.78810
O1462       O  0.11238570  0.60795158  0.55290977    -0.77200
O1463       O  0.08674955  0.61586975  0.51273432    -0.78990
O1464       O  0.04829103  0.92646648  0.59640511    -0.79920
O1465       O  0.15540339  0.55695029  0.53328855    -0.81240
O1466       O  0.08386426  0.56443683  0.59661692    -0.81530
Eu1467     Eu  0.08965209  0.53468064  0.55565025     2.39200
O1468       O  0.08903777  0.53344406  0.50790661    -0.89040
O1469       O  0.02592602  0.98396108  0.57030201    -0.92650
C1470       C  0.05201475  0.56209324  0.60647124     1.02040
C1471       C  0.16854892  0.55130704  0.51033980     1.01860
C1472       C  0.07820563  0.95827952  0.60620523     1.01810
C1473       C  0.10517726  0.62941273  0.53589480     0.99660
H1474       H  0.09928994  0.97096008  0.54750491     0.29410
O1475       O  0.07658743  0.97213408  0.54022511    -1.01430
H1476       H  0.03925901  0.57094437  0.54747203     0.29450
O1477       O  0.03820221  0.54723494  0.54014789    -1.03970
O1478       O  0.03508912  0.92243314  0.45384412    -0.81200
O1479       O  0.40235856  0.94750065  0.55249970    -0.80740
O1480       O  0.06224326  0.89755124  0.55266457    -0.79170
O1481       O  0.09086696  0.55802745  0.45511510    -0.82510
O1482       O  0.48901240  0.56848271  0.49384282    -0.80370
O1483       O  0.46525441  0.91237647  0.59448366    -0.79020
O1484       O  0.44201871  0.86277318  0.49366625    -0.80540
O1485       O  0.45317106  0.97460104  0.45416328    -0.82460
O1486       O  0.46861221  0.85465754  0.53331052    -0.79200
O1487       O  0.50203688  0.54121850  0.45141375    -0.81880
O1488       O  0.09562547  0.92324637  0.51249920    -0.77610
O1489       O  0.44462741  0.95882532  0.59590953    -0.77640
O1490       O  0.45387139  0.54101002  0.53320200    -0.77290
O1491       O  0.10868879  0.50960973  0.45240301    -0.80790
O1492       O  0.46834477  0.90382953  0.45125843    -0.80210
O1493       O  0.39437085  0.91372807  0.51253720    -0.78540
Eu1494     Eu  0.07508129  0.96952456  0.49214351     2.39770
Eu1495     Eu  0.47567772  0.99718416  0.55562106     2.39570
Eu1496     Eu  0.01218269  0.92034129  0.55550247     2.38400
Eu1497     Eu  0.04120386  0.54884777  0.49205107     2.39880
Eu1498     Eu  0.46135391  0.93481560  0.49196429     2.39790
O1499       O  0.47718414  0.99817535  0.50781234    -0.92950
O1500       O  0.01156337  0.92109283  0.50770469    -0.91850
C1501       C  0.99967512  0.90398524  0.44215382     1.02220
C1502       C  0.38089582  0.91869790  0.53560865     1.00930
C1503       C  0.09088663  0.90497570  0.53570063     1.00320
C1504       C  0.10983930  0.54167199  0.44369390     1.02340
C1505       C  0.45938856  0.55980031  0.51014846     1.01260
C1506       C  0.44589479  0.92857165  0.60566041     1.00100
C1507       C  0.45036643  0.84162389  0.51010579     1.00160
C1508       C  0.47022236  0.50994750  0.44249165     1.02780
H1509       H  0.43862358  0.91034622  0.54721292     0.30150
O1510       O  0.46258721  0.93313591  0.54000385    -1.05110
H1511       H  0.02607246  0.48486450  0.45704264     0.32200
O1512       O  0.02588512  0.98456741  0.47672850    -1.07680
C1513       C  0.14616793  0.67687093  0.84622118    -0.00260
C1514       C  0.13685318  0.67938320  0.87331373    -0.12140
C1515       C  0.09869448  0.65278292  0.88332678     0.01970
C1516       C  0.06955729  0.62277227  0.86594365    -0.00350
C1517       C  0.07876663  0.62046310  0.83878463    -0.12080
C1518       C  0.11692880  0.64714104  0.82875781     0.01860
H1519       H  0.15924106  0.70257080  0.88647834     0.14840
H1520       H  0.05642033  0.59720499  0.82564144     0.14840
C1521       C  0.12547593  0.64278317  0.80068923     0.36490
C1522       C  0.09018712  0.65728354  0.91138610     0.36400
N1523       N  0.13219999  0.63952405  0.77815662    -0.43850
N1524       N  0.08352989  0.66066070  0.93391348    -0.43850
C1525       C  0.05765672  0.77405176  0.03008391    -0.00260
C1526       C  0.01724140  0.75965666  0.03690491    -0.12140
C1527       C  0.48804972  0.71997055  0.03144443     0.01970
C1528       C  0.99950635  0.69445613  0.01899427    -0.00350
C1529       C  0.03997127  0.70873403  0.01230213    -0.12080
C1530       C  0.06923862  0.74846800  0.01785746     0.01860
H1531       H  0.00876545  0.77924747  0.04715775     0.14840
H1532       H  0.04835927  0.68916382  0.00193145     0.14840
C1533       C  0.11062847  0.76260214  0.01049918     0.36490
C1534       C  0.44668750  0.70598871  0.03878976     0.36400
N1535       N  0.14374551  0.77392464  0.00446100    -0.43850
N1536       N  0.41361604  0.69488177  0.04482042    -0.43850
C1537       C  0.40187173  0.79062854  0.19623372    -0.00260
C1538       C  0.41872207  0.83028669  0.20568795    -0.12140
C1539       C  0.45838853  0.85879515  0.19940039     0.01970
C1540       C  0.48120007  0.84719238  0.18363097    -0.00350
C1541       C  0.46425911  0.80759709  0.17405582    -0.12080
C1542       C  0.42460453  0.77912950  0.18029748     0.01860
H1543       H  0.40115904  0.83853529  0.21859825     0.14840
H1544       H  0.48186387  0.79928411  0.16123861     0.14840
C1545       C  0.40779953  0.73848450  0.17029487     0.36490
C1546       C  0.47524257  0.89942839  0.20943141     0.36400
N1547       N  0.39421852  0.70594445  0.16219753    -0.43850
N1548       N  0.48883997  0.93195554  0.21755910    -0.43850
C1549       C  0.31419592  0.51038295  0.51300732    -0.00260
C1550       C  0.30201963  0.51760524  0.53803650    -0.12140
C1551       C  0.26323962  0.99172709  0.54739170     0.01970
C1552       C  0.23660741  0.95796957  0.53150682    -0.00350
C1553       C  0.24868104  0.95093527  0.50636079    -0.12080
C1554       C  0.28744415  0.97690794  0.49696251     0.01860
H1555       H  0.32256425  0.54380988  0.54994146     0.14840
H1556       H  0.22819398  0.92465925  0.49449603     0.14840
C1557       C  0.29929211  0.96843384  0.47100809     0.36490
C1558       C  0.25139639  0.00037966  0.57328116     0.36400
N1559       N  0.30877890  0.96183537  0.45017394    -0.43850
N1560       N  0.24194347  0.00709176  0.59408500    -0.43850
C1561       C  0.22353204  0.60577859  0.70166053    -0.00260
C1562       C  0.22140156  0.59893639  0.67362912    -0.12140
C1563       C  0.19360400  0.56156991  0.66305436     0.01970
C1564       C  0.16700726  0.53035588  0.68092724    -0.00350
C1565       C  0.16955203  0.53704850  0.70898657    -0.12080
C1566       C  0.19740354  0.57435225  0.71956643     0.01860
H1567       H  0.24170660  0.62285649  0.65998486     0.14840
H1568       H  0.14905707  0.51327113  0.72264492     0.14840
C1569       C  0.19739997  0.57940184  0.74878045     0.36490
C1570       C  0.19354873  0.55641530  0.63385029     0.36400
N1571       N  0.19756649  0.58294870  0.77221563    -0.43850
N1572       N  0.19320928  0.55274765  0.61041928    -0.43850
C1573       C  0.32801129  0.86038880  0.35270587    -0.00260
C1574       C  0.36813132  0.87593637  0.34455503    -0.12140
C1575       C  0.39707180  0.91537726  0.35081372     0.01970
C1576       C  0.38548133  0.93921725  0.36535342    -0.00350
C1577       C  0.34542322  0.92361000  0.37365430    -0.12080
C1578       C  0.31645810  0.88419217  0.36732977     0.01860
H1579       H  0.37643970  0.85756114  0.33258561     0.14840
H1580       H  0.33709484  0.94205764  0.38552177     0.14840
C1581       C  0.27532862  0.86867991  0.37598749     0.36490
C1582       C  0.43811315  0.93103697  0.34187309     0.36400
N1583       N  0.24239509  0.85614667  0.38301944    -0.43850
N1584       N  0.47096493  0.94371302  0.33460233    -0.43850
C1585       C  0.43112585  0.52986032  0.17974758    -0.00260
C1586       C  0.44627462  0.54106578  0.20611468    -0.12140
C1587       C  0.45754845  0.57930439  0.21558787     0.01970
C1588       C  0.45295087  0.60644586  0.19844463    -0.00350
C1589       C  0.43810740  0.59534355  0.17198604    -0.12080
C1590       C  0.42696959  0.55713041  0.16247821     0.01860
H1591       H  0.44985973  0.52013555  0.21907381     0.14840
H1592       H  0.43438531  0.61620825  0.15905173     0.14840
C1593       C  0.41067867  0.54638287  0.13517301     0.36490
C1594       C  0.47413340  0.59007808  0.24281955     0.36400
N1595       N  0.39789135  0.53783690  0.11325938    -0.43850
N1596       N  0.48715127  0.59862883  0.26467699    -0.43850
C1597       C  0.11718038  0.61988307  0.36253314    -0.00260
C1598       C  0.08122898  0.61753046  0.37147069    -0.12140
C1599       C  0.07471972  0.64984523  0.36854821     0.01970
C1600       C  0.10241493  0.68430858  0.35381040    -0.00350
C1601       C  0.13849318  0.68680996  0.34511426    -0.12080
C1602       C  0.14454556  0.65417035  0.34745816     0.01860
H1603       H  0.05883146  0.59102711  0.38231868     0.14840
H1604       H  0.16073357  0.71324746  0.33411010     0.14840
C1605       C  0.17459744  0.65436431  0.33000955     0.36490
C1606       C  0.04240623  0.64851208  0.38403035     0.36400
N1607       N  0.19637621  0.65308113  0.31439467    -0.43850
N1608       N  0.01842933  0.64895048  0.39793808    -0.43850
C1609       C  0.26616634  0.51611645  0.02080857    -0.00260
C1610       C  0.24158430  0.97598102  0.01264491    -0.12140
C1611       C  0.25246570  0.94741282  0.01880895     0.01970
C1612       C  0.28839177  0.95934167  0.03320803    -0.00350
C1613       C  0.31283481  0.99940557  0.04156604    -0.12080
C1614       C  0.30192330  0.52798438  0.03540187     0.01860
H1615       H  0.21455332  0.96735571  0.00074306     0.14840
H1616       H  0.33988074  0.50800871  0.05344313     0.14840
C1617       C  0.32739565  0.56901944  0.04432772     0.36490
C1618       C  0.22678021  0.90630410  0.01003993     0.36400
N1619       N  0.34764736  0.60184965  0.05165355    -0.43850
N1620       N  0.20631121  0.87339621  0.00291826    -0.43850
C1621       C  0.26440086  0.69658691  0.51262977    -0.00260
C1622       C  0.28136459  0.70787302  0.53855567    -0.12140
C1623       C  0.29324275  0.74612215  0.54829309     0.01970
C1624       C  0.28734644  0.77310846  0.53193535    -0.00350
C1625       C  0.27067873  0.76193720  0.50590752    -0.12080
C1626       C  0.25903280  0.72375164  0.49609025     0.01860
H1627       H  0.28598673  0.68705519  0.55090165     0.14840
H1628       H  0.26601006  0.78273258  0.49357477     0.14840
C1629       C  0.24113925  0.71293392  0.46921442     0.36490
C1630       C  0.31194957  0.75719621  0.57490646     0.36400
N1631       N  0.22706641  0.70430802  0.44763292    -0.43850
N1632       N  0.32682548  0.76606500  0.59623935    -0.43850
C1633       C  0.43255501  0.84855657  0.68591783    -0.00260
C1634       C  0.47086257  0.86248489  0.69708039    -0.12140
C1635       C  0.48263069  0.83521974  0.70515079     0.01970
C1636       C  0.45597899  0.79367390  0.70133642    -0.00350
C1637       C  0.41754138  0.77974300  0.69040795    -0.12080
C1638       C  0.40566089  0.80697009  0.68253927     0.01860
H1639       H  0.49154822  0.89459124  0.69922219     0.14840
H1640       H  0.39689128  0.74763918  0.68817740     0.14840
C1641       C  0.36659165  0.79181149  0.66995467     0.36490
C1642       C  0.02121977  0.85026005  0.71843568     0.36400
N1643       N  0.33544503  0.77984553  0.65969452    -0.43850
N1644       N  0.05185914  0.86215990  0.72942570    -0.43850
C1645       C  0.09791820  0.86370071  0.84709592    -0.00260
C1646       C  0.09127527  0.88914669  0.82991235    -0.12140
C1647       C  0.10179590  0.92773740  0.83825812     0.01970
C1648       C  0.11898848  0.94081432  0.86416120    -0.00350
C1649       C  0.12605293  0.91550909  0.88119460    -0.12080
C1650       C  0.11541107  0.87690808  0.87290182     0.01860
H1651       H  0.07770293  0.87865864  0.80996797     0.14840
H1652       H  0.13958628  0.92594082  0.90115631     0.14840
C1653       C  0.12332069  0.85181721  0.89086764     0.36490
C1654       C  0.09370433  0.95277897  0.82038109     0.36400
N1655       N  0.12957842  0.83170249  0.90530519    -0.43850
N1656       N  0.08729567  0.97286576  0.80602203    -0.43850
C1657       C  0.17229824  0.58451558  0.17830879    -0.00260
C1658       C  0.20033496  0.58493136  0.15971705    -0.12140
C1659       C  0.22816842  0.57397782  0.16794212     0.01970
C1660       C  0.22825715  0.56299183  0.19524150    -0.00350
C1661       C  0.20001110  0.56236452  0.21372570    -0.12080
C1662       C  0.17239461  0.57345913  0.20558198     0.01860
H1663       H  0.20030166  0.59371948  0.13866518     0.14840
H1664       H  0.19961204  0.55316462  0.23472911     0.14840
C1665       C  0.14414267  0.57239341  0.22540389     0.36490
C1666       C  0.25635003  0.57470992  0.14822451     0.36400
N1667       N  0.12181384  0.57188190  0.24139052    -0.43850
N1668       N  0.27866501  0.57498745  0.13232381    -0.43850
C1669       C  0.07055385  0.89186825  0.36456323    -0.00260
C1670       C  0.08130702  0.86208980  0.36643832    -0.12140
C1671       C  0.12044425  0.87129460  0.36058513     0.01970
C1672       C  0.14909690  0.91075086  0.35270591    -0.00350
C1673       C  0.13844563  0.94061466  0.35101470    -0.12080
C1674       C  0.09929085  0.93141568  0.35687088     0.01860
H1675       H  0.05936831  0.83195314  0.37322369     0.14840
H1676       H  0.16035981  0.97069917  0.34412456     0.14840
C1677       C  0.08888546  0.96252820  0.35434609     0.36490
C1678       C  0.13084596  0.84017039  0.36298122     0.36400
N1679       N  0.08028577  0.98725047  0.35227227    -0.43850
N1680       N  0.13950539  0.81548223  0.36494901    -0.43850
C1681       C  0.23710828  0.72071442  0.03409494    -0.00260
C1682       C  0.26222415  0.75828011  0.02217918    -0.12140
C1683       C  0.30150668  0.76940946  0.01510247     0.01970
C1684       C  0.31581751  0.74271094  0.02038252    -0.00350
C1685       C  0.29079118  0.70524302  0.03246744    -0.12080
C1686       C  0.25153722  0.69419060  0.03965789     0.01860
H1687       H  0.25110194  0.77882676  0.01853630     0.14840
H1688       H  0.30185344  0.68462228  0.03598262     0.14840
C1689       C  0.22717323  0.65642080  0.05373248     0.36490
C1690       C  0.32598738  0.80741967  0.00131276     0.36400
N1691       N  0.20769984  0.62642659  0.06528652    -0.43850
N1692       N  0.34560048  0.83765432  0.99005464    -0.43850
C1693       C  0.99947028  0.74598677  0.51510803    -0.00260
C1694       C  0.04031533  0.77586841  0.51417979    -0.12140
C1695       C  0.07001906  0.76645374  0.52031213     0.01970
C1696       C  0.05863358  0.72662411  0.52745191    -0.00350
C1697       C  0.01781080  0.69670834  0.52819312    -0.12080
C1698       C  0.48811685  0.70612365  0.52214024     0.01860
H1699       H  0.04895984  0.80627854  0.50792989     0.14840
H1700       H  0.00913897  0.66633827  0.53457334     0.14840
C1701       C  0.44627772  0.67476365  0.52373815     0.36490
C1702       C  0.11187075  0.79783234  0.51903569     0.36400
N1703       N  0.41275736  0.64970682  0.52506176    -0.43850
N1704       N  0.14541528  0.82288815  0.51796295    -0.43850
C1705       C  0.39111796  0.89157358  0.86149388    -0.00260
C1706       C  0.40495455  0.92955112  0.84992165    -0.12140
C1707       C  0.37767175  0.94164151  0.84254901     0.01970
C1708       C  0.33621282  0.91560333  0.84724353    -0.00350
C1709       C  0.32235459  0.87746195  0.85858926    -0.12080
C1710       C  0.34960909  0.86534500  0.86597774     0.01860
H1711       H  0.43704060  0.94987575  0.84713752     0.14840
H1712       H  0.29029335  0.85726454  0.86158439     0.14840
C1713       C  0.33468761  0.82693604  0.87944898     0.36490
C1714       C  0.39260902  0.98015015  0.82936484     0.36400
N1715       N  0.32296242  0.79641190  0.89051349    -0.43850
N1716       N  0.40446545  0.51087511  0.81860955    -0.43850
C1717       C  0.40541719  0.56257477  0.70151471    -0.00260
C1718       C  0.41174784  0.56524767  0.67338437    -0.12140
C1719       C  0.44862288  0.57341071  0.66284119     0.01970
C1720       C  0.47986741  0.57847581  0.68084196    -0.00350
C1721       C  0.47369278  0.57630125  0.70894920    -0.12080
C1722       C  0.43707318  0.56873113  0.71948997     0.01860
H1723       H  0.38780309  0.56116621  0.65960008     0.14840
H1724       H  0.49752167  0.58014238  0.72276442     0.14840
C1725       C  0.43335210  0.56721730  0.74881693     0.36490
C1726       C  0.45332214  0.57700461  0.63354137     0.36400
N1727       N  0.43123622  0.56721371  0.77233442    -0.43850
N1728       N  0.45665009  0.07925731  0.61005409    -0.43850
C1729       C  0.79351661  0.50071595  0.71456525     0.03020
C1730       C  0.83089319  0.01743730  0.70115847    -0.13130
C1731       C  0.86508527  0.05122226  0.71157449     0.00520
C1732       C  0.86169701  0.07112131  0.73386530    -0.11650
C1733       C  0.82710016  0.05335856  0.74965846     0.03010
C1734       C  0.79203237  0.01849383  0.73968591    -0.11070
H1735       H  0.83449672  0.50235994  0.68371181     0.08610
H1736       H  0.88780954  0.09911173  0.74035993     0.06140
H1737       H  0.76480713  0.00453366  0.75180783     0.05990
C1738       C  0.59218496  0.13342352  0.66850199     0.03020
C1739       C  0.55487005  0.11920919  0.68158569    -0.13130
C1740       C  0.51944580  0.08722792  0.67084729     0.00520
C1741       C  0.52117358  0.06614868  0.64867068    -0.11650
C1742       C  0.55601787  0.08137349  0.63328981     0.03010
C1743       C  0.59234625  0.11479706  0.64345517    -0.11070
H1744       H  0.55244394  0.13524447  0.69890473     0.08610
H1745       H  0.49388123  0.03936661  0.64202961     0.06140
H1746       H  0.61969328  0.12714264  0.63150492     0.05990
C1747       C  0.77980163  0.47041593  0.83403847     0.03020
C1748       C  0.80183663  0.45549420  0.84776755    -0.13130
C1749       C  0.80673538  0.42519517  0.83638878     0.00520
C1750       C  0.78834054  0.40745753  0.81204231    -0.11650
C1751       C  0.76603423  0.42070868  0.79753660     0.03010
C1752       C  0.76146663  0.45248360  0.80857613    -0.11070
H1753       H  0.81815531  0.46937119  0.86640114     0.08610
H1754       H  0.79286569  0.38378990  0.80398374     0.06140
H1755       H  0.74536381  0.46405212  0.79707049     0.05990
C1756       C  0.94559928  0.33649058  0.87897682     0.03020
C1757       C  0.92667375  0.35295610  0.86320908    -0.13130
C1758       C  0.92035477  0.38284814  0.87376622     0.00520
C1759       C  0.93502277  0.39921578  0.89916832    -0.11650
C1760       C  0.95464062  0.38473543  0.91534509     0.03010
C1761       C  0.96015839  0.35310824  0.90528061    -0.11070
H1762       H  0.91298318  0.34002604  0.84370824     0.08610
H1763       H  0.92948333  0.42248111  0.90671708     0.06140
H1764       H  0.97380425  0.34038340  0.91825533     0.05990
C1765       C  0.94466513  0.30213095  0.50049514     0.03020
C1766       C  0.96552256  0.28641478  0.51485283    -0.13130
C1767       C  0.97021705  0.25575584  0.50382800     0.00520
C1768       C  0.95283445  0.23875225  0.47904314    -0.11650
C1769       C  0.93146963  0.25267050  0.46410658     0.03010
C1770       C  0.92706014  0.28459292  0.47486508    -0.11070
H1771       H  0.48116320  0.29995230  0.53374764     0.08610
H1772       H  0.95745700  0.21517202  0.47094648     0.06140
H1773       H  0.91183013  0.29672232  0.46294121     0.05990
C1774       C  0.61132497  0.16947408  0.54503197     0.03020
C1775       C  0.59269812  0.18637735  0.52938824    -0.13130
C1776       C  0.58737888  0.21703686  0.53981992     0.00520
C1777       C  0.60226968  0.23318576  0.56529650    -0.11650
C1778       C  0.62156367  0.21832716  0.58148400     0.03010
C1779       C  0.62634463  0.18619088  0.57134526    -0.11070
H1780       H  0.57884056  0.17352318  0.50991166     0.08610
H1781       H  0.59720921  0.25671826  0.57292755     0.06140
H1782       H  0.63983931  0.17323636  0.58424424     0.05990
C1783       C  0.92608161  0.29784053  0.00439804     0.03020
C1784       C  0.89033465  0.28110282  0.01977207    -0.13130
C1785       C  0.85410195  0.25083793  0.00898699     0.00520
C1786       C  0.85284280  0.23412451  0.98384340    -0.11650
C1787       C  0.88733821  0.24885360  0.96800756     0.03010
C1788       C  0.92445333  0.28096047  0.97829209    -0.11070
H1789       H  0.88924067  0.29427950  0.03900989     0.08610
H1790       H  0.82399813  0.21063350  0.97609175     0.06140
H1791       H  0.95107183  0.29395053  0.96556260     0.05990
C1792       C  0.62575657  0.16581591  0.04702920     0.03020
C1793       C  0.62557593  0.18384970  0.07238271    -0.13130
C1794       C  0.66209333  0.21627448  0.08319054     0.00520
C1795       C  0.69763280  0.23004042  0.06858002    -0.11650
C1796       C  0.69807028  0.21204594  0.04438914     0.03010
C1797       C  0.66261602  0.18138090  0.03311572    -0.11070
H1798       H  0.59802413  0.17172570  0.08408161     0.08610
H1799       H  0.72601611  0.25398540  0.07659331     0.06140
H1800       H  0.66495713  0.16739409  0.01460895     0.05990
C1801       C  0.95956645  0.33429820  0.37920323     0.03020
C1802       C  0.99598488  0.35109864  0.36459878    -0.13130
C1803       C  0.53146435  0.38233081  0.37550941     0.00520
C1804       C  0.53124401  0.39927497  0.40027375    -0.11650
C1805       C  0.99607976  0.38431125  0.41548063     0.03010
C1806       C  0.95966990  0.35160335  0.40489304    -0.11070
H1807       H  0.99806992  0.33775648  0.34570213     0.08610
H1808       H  0.55955591  0.42334720  0.40827368     0.06140
H1809       H  0.93248385  0.33862331  0.41704486     0.05990
C1810       C  0.75963669  0.46624208  0.33619519     0.03020
C1811       C  0.72378128  0.45011597  0.35142168    -0.13130
C1812       C  0.68745925  0.41971319  0.34080387     0.00520
C1813       C  0.68610746  0.40282206  0.31567041    -0.11650
C1814       C  0.72059138  0.41688080  0.29992637     0.03010
C1815       C  0.75787929  0.44892278  0.31019123    -0.11070
H1816       H  0.72284266  0.46346079  0.37062301     0.08610
H1817       H  0.65722240  0.37941307  0.30792769     0.06140
H1818       H  0.78460109  0.46139268  0.29758543     0.05990
C1819       C  0.61325074  0.13724854  0.16626408     0.03020
C1820       C  0.63748211  0.12418571  0.17908656    -0.13130
C1821       C  0.64199792  0.09350045  0.16795390     0.00520
C1822       C  0.62100893  0.07372169  0.14475715    -0.11650
C1823       C  0.59795872  0.08629049  0.13059303     0.03010
C1824       C  0.59348882  0.11815686  0.14145344    -0.11070
H1825       H  0.65574122  0.13991804  0.19668186     0.08610
H1826       H  0.62421611  0.04901077  0.13717576     0.06140
H1827       H  0.57635958  0.12888469  0.13028813     0.05990
C1828       C  0.77910289  0.50350916  0.21124457     0.03020
C1829       C  0.76033592  0.02063039  0.19594371    -0.13130
C1830       C  0.75780218  0.05316002  0.20601195     0.00520
C1831       C  0.77654543  0.07132762  0.23025161    -0.11650
C1832       C  0.79297273  0.05422297  0.24691950     0.03010
C1833       C  0.79530327  0.02053691  0.23725885    -0.11070
H1834       H  0.74393278  0.50631855  0.17743841     0.08610
H1835       H  0.77511308  0.09736125  0.23717640     0.06140
H1836       H  0.80759052  0.00660503  0.25035937     0.05990
C1837       C  0.54122938  0.25213984  0.83450627     0.03020
C1838       C  0.55726593  0.28920140  0.84818942    -0.13130
C1839       C  0.58795752  0.32435492  0.83659377     0.00520
C1840       C  0.60549494  0.32327266  0.81236221    -0.11650
C1841       C  0.59110146  0.28764874  0.79787699     0.03010
C1842       C  0.55870471  0.25143844  0.80899688    -0.11070
H1843       H  0.54358358  0.29187532  0.86674514     0.08610
H1844       H  0.62995277  0.35132648  0.80435594     0.06140
H1845       H  0.54621830  0.22374048  0.79745825     0.05990
C1846       C  0.67360329  0.05174309  0.87901458     0.03020
C1847       C  0.65787397  0.01551516  0.86427144    -0.13130
C1848       C  0.62753431  0.47945609  0.87523398     0.00520
C1849       C  0.60971195  0.47887750  0.89977425    -0.11650
C1850       C  0.62391255  0.01350069  0.91524993     0.03010
C1851       C  0.65609881  0.05052645  0.90486083    -0.11070
H1852       H  0.67183225  0.01411627  0.84547246     0.08610
H1853       H  0.58557589  0.45029252  0.90736540     0.06140
H1854       H  0.66852909  0.07743545  0.91725829     0.05990
C1855       C  0.87764035  0.40347718  0.66904164     0.03020
C1856       C  0.89386040  0.38401024  0.68441974    -0.13130
C1857       C  0.92355944  0.37758234  0.67360241     0.00520
C1858       C  0.93999689  0.39261229  0.64825749    -0.11650
C1859       C  0.92598640  0.41301644  0.63241406     0.03010
C1860       C  0.89442936  0.41857382  0.64277885    -0.11070
H1861       H  0.88095949  0.37013998  0.70388086     0.08610
H1862       H  0.96313799  0.38697666  0.64055925     0.06140
H1863       H  0.88196773  0.43277156  0.63009895     0.05990
C1864       C  0.51095505  0.23769420  0.71487879     0.03020
C1865       C  0.49564432  0.25920201  0.70097011    -0.13130
C1866       C  0.96555140  0.26436471  0.71242323     0.00520
C1867       C  0.94815196  0.24648212  0.73695354    -0.11650
C1868       C  0.96159852  0.22441677  0.75153208     0.03010
C1869       C  0.99331285  0.21974978  0.74047028    -0.11070
H1870       H  0.50917375  0.27507429  0.68214626     0.08610
H1871       H  0.92458740  0.25115939  0.74505790     0.06140
H1872       H  0.50510846  0.20394287  0.75207790     0.05990
C1873       C  0.70826570  0.08495176  0.50047235     0.03020
C1874       C  0.72389536  0.12212647  0.51396604    -0.13130
C1875       C  0.75460352  0.15722418  0.50233064     0.00520
C1876       C  0.77313574  0.15589944  0.47868161    -0.11650
C1877       C  0.75848686  0.12036213  0.46410591     0.03010
C1878       C  0.72591754  0.08420999  0.47508036    -0.11070
H1879       H  0.70989740  0.12488929  0.53233502     0.08610
H1880       H  0.79806090  0.18383082  0.47090615     0.06140
H1881       H  0.71344631  0.05653555  0.46351720     0.05990
C1882       C  0.84110640  0.38449800  0.54511921     0.03020
C1883       C  0.82590426  0.34773196  0.53112440    -0.13130
C1884       C  0.79602784  0.31195164  0.54265429     0.00520
C1885       C  0.77751306  0.31212918  0.56666119    -0.11650
C1886       C  0.79153373  0.34719294  0.58162927     0.03010
C1887       C  0.82356789  0.38400087  0.57083605    -0.11070
H1888       H  0.83989094  0.34581000  0.51248843     0.08610
H1889       H  0.75322715  0.28374313  0.57438937     0.06140
H1890       H  0.83580471  0.41130256  0.58280464     0.05990
C1891       C  0.71024915  0.06979891  0.00371505     0.03020
C1892       C  0.72683506  0.05086060  0.01934720    -0.13130
C1893       C  0.75753825  0.04565646  0.00898032     0.00520
C1894       C  0.77438791  0.06117741  0.98380483    -0.11650
C1895       C  0.75964134  0.08055780  0.96759731     0.03010
C1896       C  0.72734616  0.08519157  0.97758002    -0.11070
H1897       H  0.71353433  0.03645345  0.03860341     0.08610
H1898       H  0.79817834  0.05632211  0.97638555     0.06140
H1899       H  0.71448163  0.09874468  0.96465254     0.05990
C1900       C  0.84308387  0.40332288  0.04742568     0.03020
C1901       C  0.82789697  0.42472093  0.03316756    -0.13130
C1902       C  0.79749062  0.42970219  0.04422406     0.00520
C1903       C  0.77994237  0.41208868  0.06878074    -0.11650
C1904       C  0.79352950  0.39046659  0.08372752     0.03010
C1905       C  0.82532573  0.38572376  0.07300775    -0.11070
H1906       H  0.84172240  0.44061094  0.01440569     0.08610
H1907       H  0.75623642  0.41674033  0.07664603     0.06140
H1908       H  0.83715475  0.37019386  0.08490040     0.05990
C1909       C  0.67523866  0.06574457  0.37897739     0.03020
C1910       C  0.65529130  0.08116034  0.36324937    -0.13130
C1911       C  0.62942135  0.09240389  0.37550582     0.00520
C1912       C  0.61868531  0.08181549  0.40273960    -0.11650
C1913       C  0.63093437  0.05889651  0.41737573     0.03010
C1914       C  0.66084340  0.05203400  0.40586646    -0.11070
H1915       H  0.66229964  0.08674044  0.34190463     0.08610
H1916       H  0.60016935  0.09147495  0.41296894     0.06140
H1917       H  0.67387783  0.03791824  0.41805053     0.05990
C1918       C  0.54583802  0.23977215  0.33653537     0.03020
C1919       C  0.56525308  0.22396931  0.35253701    -0.13130
C1920       C  0.59027421  0.21150366  0.34041032     0.00520
C1921       C  0.60041258  0.22065863  0.31297603    -0.11650
C1922       C  0.58869349  0.24364607  0.29805138     0.03010
C1923       C  0.55979482  0.25204521  0.30944758    -0.11070
H1924       H  0.55830982  0.21873081  0.37394606     0.08610
H1925       H  0.61811992  0.20990165  0.30285975     0.06140
H1926       H  0.54703010  0.26616173  0.29697771     0.05990
C1927       C  0.50673851  0.21801569  0.21108435     0.03020
C1928       C  0.99159369  0.18115590  0.19718668    -0.13130
C1929       C  0.96130779  0.14548698  0.20863516     0.00520
C1930       C  0.94233428  0.14602197  0.23231990    -0.11650
C1931       C  0.95690125  0.18103778  0.24739473     0.03010
C1932       C  0.98914601  0.21767734  0.23669557    -0.11070
H1933       H  0.50594994  0.17907624  0.17878618     0.08610
H1934       H  0.91765157  0.11782109  0.23996502     0.06140
H1935       H  0.50160582  0.24494301  0.24872194     0.05990
C1936       C  0.87422142  0.41813697  0.16803285     0.03020
C1937       C  0.89008452  0.45541348  0.18143974    -0.13130
C1938       C  0.92141871  0.49024917  0.16995500     0.00520
C1939       C  0.94035069  0.48841312  0.14666221    -0.11650
C1940       C  0.92511770  0.45287139  0.13202639     0.03010
C1941       C  0.89201660  0.41703204  0.14282191    -0.11070
H1942       H  0.87579631  0.45850683  0.19954189     0.08610
H1943       H  0.96576930  0.01607066  0.13899252     0.06140
H1944       H  0.87919227  0.38938564  0.13119440     0.05990
C1945       C  0.77472640  0.25089668  0.33572103     0.03020
C1946       C  0.79349282  0.28631597  0.35135475    -0.13130
C1947       C  0.79822279  0.32215998  0.34107278     0.00520
C1948       C  0.78213811  0.32346386  0.31608453    -0.11650
C1949       C  0.76298530  0.28939948  0.29981607     0.03010
C1950       C  0.75927722  0.25267847  0.30955542    -0.11070
H1951       H  0.80823185  0.28749422  0.37050261     0.08610
H1952       H  0.78654183  0.35209595  0.30879615     0.06140
H1953       H  0.74644380  0.22665208  0.29634739     0.05990
C1954       C  0.93882217  0.04949515  0.37995591     0.03020
C1955       C  0.91881478  0.01319649  0.36537496    -0.13130
C1956       C  0.91522991  0.47811836  0.37612756     0.00520
C1957       C  0.93326897  0.47839725  0.40060279    -0.11650
C1958       C  0.95340878  0.01339460  0.41598596     0.03010
C1959       C  0.95629712  0.04944543  0.40569750    -0.11070
H1960       H  0.90265576  0.01090730  0.34667466     0.08610
H1961       H  0.92969311  0.45024177  0.40822780     0.06140
H1962       H  0.97018956  0.07628994  0.41812481     0.05990
C1963       C  0.77358551  0.21741309  0.71489340     0.03020
C1964       C  0.75295427  0.18017263  0.70127342    -0.13130
C1965       C  0.75237033  0.14609168  0.71179710     0.00520
C1966       C  0.77541029  0.14937395  0.73432486    -0.11650
C1967       C  0.79230645  0.18383483  0.75016296     0.03010
C1968       C  0.79274843  0.21885268  0.74015658    -0.11070
H1969       H  0.73446032  0.17654647  0.68357413     0.08610
H1970       H  0.77686623  0.12317582  0.74096449     0.06140
H1971       H  0.80609850  0.24598671  0.75234696     0.05990
C1972       C  0.60921109  0.41812884  0.66830915     0.03020
C1973       C  0.59042802  0.41800493  0.64317806    -0.13130
C1974       C  0.59366339  0.45430478  0.63298812     0.00520
C1975       C  0.61360021  0.48909291  0.64837086    -0.11650
C1976       C  0.63629669  0.49076162  0.67073061     0.03010
C1977       C  0.63255733  0.45538463  0.68154817    -0.11070
H1978       H  0.57517197  0.39070341  0.63119170     0.08610
H1979       H  0.61438914  0.01639574  0.64165391     0.06140
H1980       H  0.65088132  0.45782657  0.69909017     0.05990
C1981       C  0.92581098  0.06591050  0.50041540     0.03020
C1982       C  0.88871047  0.04427198  0.51410164    -0.13130
C1983       C  0.85361866  0.03993015  0.50258737     0.00520
C1984       C  0.85481131  0.05969133  0.47881296    -0.11650
C1985       C  0.89029379  0.08089668  0.46417499     0.03010
C1986       C  0.92647747  0.08453668  0.47503294    -0.11070
H1987       H  0.88596371  0.02744034  0.53253261     0.08610
H1988       H  0.82683469  0.05648349  0.47105171     0.06140
H1989       H  0.95410715  0.09996834  0.46338891     0.05990
C1990       C  0.62521660  0.39977501  0.54517598     0.03020
C1991       C  0.66187668  0.42156676  0.53096753    -0.13130
C1992       C  0.69776392  0.42776866  0.54240786     0.00520
C1993       C  0.69786701  0.40937103  0.56657570    -0.11650
C1994       C  0.66294274  0.38807109  0.58168919     0.03010
C1995       C  0.62597868  0.38286565  0.57098053    -0.11070
H1996       H  0.66364517  0.43734471  0.51220354     0.08610
H1997       H  0.72637255  0.41384020  0.57426354     0.06140
H1998       H  0.59876266  0.36755699  0.58306277     0.05990
C1999       C  0.79126177  0.23332790  0.21180421     0.03020
C2000       C  0.82738146  0.25442067  0.19694162    -0.13130
C2001       C  0.86356555  0.26068605  0.20779011     0.00520
C2002       C  0.86480275  0.24428000  0.23262438    -0.11650
C2003       C  0.83011977  0.22264409  0.24804244     0.03010
C2004       C  0.79279622  0.21696824  0.23764557    -0.11070
H2005       H  0.82856089  0.26943852  0.17793382     0.08610
H2006       H  0.89371422  0.24986821  0.24030156     0.06140
H2007       H  0.76585829  0.20170249  0.25000382     0.05990
C2008       C  0.59166592  0.40005111  0.16860772     0.03020
C2009       C  0.55544735  0.38059256  0.18346829    -0.13130
C2010       C  0.52017911  0.37675075  0.17271225     0.00520
C2011       C  0.52022378  0.39388453  0.14791917    -0.11650
C2012       C  0.55509605  0.41347183  0.13236550     0.03010
C2013       C  0.59142296  0.41705655  0.14278307    -0.11070
H2014       H  0.55331197  0.36496402  0.20237796     0.08610
H2015       H  0.49196019  0.39001455  0.14020137     0.06140
H2016       H  0.61840102  0.43099078  0.13040525     0.05990
C2017       C  0.94127847  0.08360772  0.00351649     0.03020
C2018       C  0.96296958  0.11979001  0.01826265    -0.13130
C2019       C  0.96937396  0.15605192  0.00746698     0.00520
C2020       C  0.95278711  0.15725067  0.98266381    -0.11650
C2021       C  0.93085630  0.12256120  0.96727319     0.03010
C2022       C  0.92485900  0.08520583  0.97771865    -0.11070
H2023       H  0.97812810  0.12086838  0.03719259     0.08610
H2024       H  0.95853711  0.18616029  0.97494192     0.06140
H2025       H  0.90929047  0.05825170  0.96541739     0.05990
C2026       C  0.60867391  0.38422599  0.04573580     0.03020
C2027       C  0.59023273  0.34830349  0.03052120    -0.13130
C2028       C  0.58732039  0.31321635  0.04091278     0.00520
C2029       C  0.60445012  0.31337071  0.06578157    -0.11650
C2030       C  0.62274826  0.34787835  0.08177153     0.03010
C2031       C  0.62548671  0.38392341  0.07163042    -0.11070
H2032       H  0.57457576  0.34613233  0.01160923     0.08610
H2033       H  0.60118166  0.28532223  0.07337329     0.06140
H2034       H  0.63849954  0.41056674  0.08431295     0.05990
C2035       C  0.75821894  0.23176085  0.83422678     0.03020
C2036       C  0.75941331  0.25096885  0.80900323    -0.13130
C2037       C  0.72359504  0.24825969  0.79824634     0.00520
C2038       C  0.68815272  0.22799446  0.81303523    -0.11650
C2039       C  0.68601050  0.20644670  0.83610197     0.03010
C2040       C  0.72078459  0.20969585  0.84747171    -0.11070
H2041       H  0.78712166  0.26617396  0.79743110     0.08610
H2042       H  0.66073860  0.22644173  0.80562541     0.06140
H2043       H  0.71759261  0.19195295  0.86550214     0.05990
C2044       C  0.95786934  0.06613958  0.87946163     0.03020
C2045       C  0.99469265  0.08802976  0.86542536    -0.13130
C2046       C  0.53022775  0.09242570  0.87637988     0.00520
C2047       C  0.52938737  0.07174977  0.89963722    -0.11650
C2048       C  0.99468384  0.05183806  0.91510482     0.03010
C2049       C  0.95819775  0.04826812  0.90490821    -0.11070
H2050       H  0.99688427  0.10511657  0.84724418     0.08610
H2051       H  0.55727262  0.07407984  0.90676781     0.06140
H2052       H  0.93110856  0.03355231  0.91715619     0.05990
O2053       O  0.86606366  0.09014682  0.78834868    -0.80240
O2054       O  0.73516719  0.11429206  0.88718747    -0.81790
O2055       O  0.77633327  0.03077995  0.82796173    -0.78810
O2056       O  0.78998935  0.14479516  0.78875560    -0.77200
O2057       O  0.83869746  0.21152463  0.78643932    -0.78990
O2058       O  0.80261504  0.02212043  0.86759314    -0.79920
O2059       O  0.72729563  0.08153426  0.84681692    -0.81240
O2060       O  0.79928094  0.07158114  0.78591639    -0.81530
Eu2061     Eu  0.79449260  0.10261784  0.82691907     2.39200
O2062       O  0.81035223  0.16581389  0.84276512    -0.89040
O2063       O  0.84447326  0.08857656  0.84278165    -0.92650
C2064       C  0.83059853  0.07206928  0.77659817     1.02040
C2065       C  0.71370636  0.08596544  0.86997607     1.01860
C2066       C  0.78476808  0.00946169  0.84418267     1.01810
C2067       C  0.80753670  0.18027783  0.77710471     0.99660
H2068       H  0.77154297  0.07748521  0.88206618     0.29410
O2069       O  0.79565912  0.10026093  0.87499503    -1.01430
H2070       H  0.85932186  0.15240276  0.79214644     0.29450
O2071       O  0.85905647  0.15196984  0.81182249    -1.03970
O2072       O  0.84726340  0.21049049  0.92976405    -0.81200
O2073       O  0.98018204  0.18857440  0.82846750    -0.80740
O2074       O  0.79873691  0.07953928  0.92968607    -0.79170
O2075       O  0.82197551  0.23508018  0.82847124    -0.82510
O2076       O  0.92276696  0.22385252  0.78968810    -0.80370
O2077       O  0.89533427  0.06459456  0.88739471    -0.79020
O2078       O  0.93126560  0.16285331  0.92949619    -0.80540
O2079       O  0.94651338  0.27517598  0.88749924    -0.82460
O2080       O  0.88421515  0.09552041  0.93105160    -0.79200
O2081       O  0.92140844  0.28293024  0.84706380    -0.81880
O2082       O  0.77785579  0.12582660  0.93084898    -0.77610
O2083       O  0.92852837  0.09032828  0.84715571    -0.77640
O2084       O  0.94028405  0.17524930  0.78656376    -0.77290
O2085       O  0.78585341  0.20685433  0.86733470    -0.80790
O2086       O  0.91467966  0.23137124  0.93132864    -0.80210
O2087       O  0.98834302  0.22447064  0.86740594    -0.78540
Eu2088     Eu  0.80850075  0.16423720  0.89049386     2.39770
Eu2089     Eu  0.90782343  0.13642537  0.82686986     2.39570
Eu2090     Eu  0.84552942  0.08762565  0.89061276     2.38400
Eu2091     Eu  0.87477864  0.21611339  0.82736976     2.39880
Eu2092     Eu  0.92298473  0.20193748  0.89069345     2.39790
O2093       O  0.92238101  0.20042651  0.84294373    -0.92950
O2094       O  0.85905915  0.15124866  0.90521879    -0.91850
C2095       C  0.88298746  0.22964086  0.94109080     1.02220
C2096       C  0.00144923  0.21858938  0.84449062     1.00930
C2097       C  0.77935200  0.09578189  0.94076281     1.00320
C2098       C  0.79176160  0.22583924  0.84433287     1.02340
C2099       C  0.94104625  0.20711102  0.77786515     1.01260
C2100       C  0.92383900  0.07198144  0.87031235     1.00100
C2101       C  0.91480993  0.12708531  0.94070588     1.00160
C2102       C  0.93961224  0.29652322  0.87020803     1.02780
H2103       H  0.93227765  0.13807004  0.88211608     0.30150
O2104       O  0.90956505  0.13935352  0.87498454    -1.05110
H2105       H  0.87297835  0.23859098  0.88253715     0.32200
O2106       O  0.87148791  0.21458130  0.87538717    -1.07680
O2107       O  0.95325246  0.42342502  0.95326240    -0.80240
O2108       O  0.60914026  0.44628038  0.05333085    -0.81790
O2109       O  0.58438436  0.47327867  0.95317371    -0.78810
O2110       O  0.98814507  0.35979631  0.99590201    -0.77200
O2111       O  0.95498158  0.35197357  0.03609313    -0.78990
O2112       O  0.60585422  0.04073242  0.95168077    -0.79920
O2113       O  0.58201127  0.41155942  0.01382549    -0.81240
O2114       O  0.99971319  0.40274931  0.95198384    -0.81530
Eu2115     Eu  0.53775575  0.43317674  0.99223825     2.39200
O2116       O  0.53883585  0.43421928  0.04002400    -0.89040
O2117       O  0.52455068  0.48342625  0.97743454    -0.92650
C2118       C  0.96962231  0.40421588  0.94215146     1.02040
C2119       C  0.60104784  0.41710112  0.03674119     1.01860
C2120       C  0.60404845  0.50907324  0.94193818     1.01810
C2121       C  0.95984313  0.33830213  0.01313711     0.99660
H2122       H  0.61169099  0.49706109  0.00042001     0.29410
O2123       O  0.58776023  0.49572517  0.00761074    -1.01430
H2124       H  0.95088986  0.39589393  0.00064391     0.29450
O2125       O  0.97359362  0.42004085  0.00776388    -1.03970
O2126       O  0.59672485  0.04666146  0.09287106    -0.81200
O2127       O  0.93867123  0.02051306  0.99540837    -0.80740
O2128       O  0.64860585  0.07042191  0.99532843    -0.79170
O2129       O  0.01592661  0.41203964  0.09399176    -0.82510
O2130       O  0.90352802  0.40013108  0.05418138    -0.80370
O2131       O  0.53460076  0.05276201  0.95314015    -0.79020
O2132       O  0.56243564  0.10461357  0.05382246    -0.80540
O2133       O  0.96290120  0.99120095  0.09357457    -0.82460
O2134       O  0.59727818  0.11280272  0.01437837    -0.79200
O2135       O  0.94438653  0.42460147  0.09656368    -0.81880
O2136       O  0.65621510  0.04462935  0.03551379    -0.77610
O2137       O  0.96700530  0.00645111  0.95164861    -0.77640
O2138       O  0.89530906  0.42651088  0.01448430    -0.77290
O2139       O  0.58272581  0.46059150  0.09635038    -0.80790
O2140       O  0.54821166  0.06436334  0.09601701    -0.80210
O2141       O  0.96352536  0.05281228  0.03599932    -0.78540
Eu2142     Eu  0.58923564  0.49836702  0.05557558     2.39770
Eu2143     Eu  0.96095633  0.46992073  0.99231879     2.39570
Eu2144     Eu  0.57524814  0.04711479  0.99213803     2.38400
Eu2145     Eu  0.97555518  0.41886429  0.05581415     2.39880
Eu2146     Eu  0.51003795  0.03228764  0.05562932     2.39790
O2147       O  0.96167886  0.46893791  0.04006467    -0.92950
O2148       O  0.57409686  0.04643165  0.03988694    -0.91850
C2149       C  0.58009096  0.06510176  0.10462836     1.02220
C2150       C  0.94586498  0.04879070  0.01265565     1.00930
C2151       C  0.66995271  0.06326640  0.01248390     1.00320
C2152       C  0.55140075  0.42926122  0.10558732     1.02340
C2153       C  0.88237827  0.40854012  0.03776462     1.01260
C2154       C  0.49881459  0.03638318  0.94184859     1.00100
C2155       C  0.59196642  0.12591851  0.03744075     1.00160
C2156       C  0.94457593  0.45596341  0.10545786     1.02780
H2157       H  0.51164814  0.05692758  0.00048772     0.30150
O2158       O  0.51275924  0.03414519  0.00762697    -1.05110
H2159       H  0.52535824  0.48332557  0.09063634     0.32200
O2160       O  0.52511856  0.48321352  0.07095518    -1.07680
O2161       O  0.93153107  0.21427923  0.42598440    -0.80240
O2162       O  0.77537398  0.18962464  0.32724337    -0.81790
O2163       O  0.89664252  0.27268933  0.38622792    -0.78810
O2164       O  0.79675768  0.15902967  0.42582979    -0.77200
O2165       O  0.77835938  0.09246374  0.42868590    -0.78990
O2166       O  0.93175600  0.28087602  0.34691791    -0.79920
O2167       O  0.79835282  0.22115870  0.36821025    -0.81240
O2168       O  0.88295986  0.23195386  0.42871025    -0.81530
Eu2169     Eu  0.84443537  0.20027458  0.38813851     2.39200
O2170       O  0.79592230  0.13684861  0.37226591    -0.89040
O2171       O  0.90858416  0.21461730  0.37254644    -0.92650
C2172       C  0.91463465  0.23248570  0.43764998     1.02040
C2173       C  0.78120240  0.21720104  0.34466947     1.01860
C2174       C  0.92616723  0.29405778  0.36984220     1.01810
C2175       C  0.77830786  0.12370110  0.43759684     0.99660
H2176       H  0.84686754  0.22479349  0.33312507     0.29410
O2177       O  0.84756038  0.20176245  0.34019437    -1.01430
H2178       H  0.85957541  0.15128290  0.42310509     0.29450
O2179       O  0.85950796  0.15129066  0.40342248    -1.03970
O2180       O  0.79058719  0.09213528  0.28506030    -0.81200
O2181       O  0.93885960  0.11118621  0.38706218    -0.80740
O2182       O  0.87037118  0.22271829  0.28583886    -0.79170
O2183       O  0.73740881  0.06577404  0.38549759    -0.82510
O2184       O  0.85158092  0.08075250  0.42589968    -0.80370
O2185       O  0.98371995  0.23954546  0.32899890    -0.79020
O2186       O  0.91856069  0.14155743  0.28572565    -0.80540
O2187       O  0.82232023  0.02791183  0.32799224    -0.82460
O2188       O  0.94005175  0.20897154  0.28402388    -0.79200
O2189       O  0.78953139  0.01988356  0.36834962    -0.81880
O2190       O  0.80287535  0.17596675  0.28408360    -0.77610
O2191       O  0.99164977  0.21247427  0.36852076    -0.77640
O2192       O  0.91830098  0.12939855  0.42893739    -0.77290
O2193       O  0.72921072  0.09384171  0.34656531    -0.80790
O2194       O  0.83649862  0.07069082  0.28431701    -0.80090
O2195       O  0.91659619  0.07897162  0.34631744    -0.78540
Eu2196     Eu  0.79575331  0.13777083  0.32439631     2.39770
Eu2197     Eu  0.92392499  0.16671117  0.38822840     2.39570
Eu2198     Eu  0.91018830  0.21531776  0.32480152     2.38400
Eu2199     Eu  0.81002700  0.08689087  0.38807910     2.39880
Eu2200     Eu  0.87281816  0.10126551  0.32491274     2.39790
O2201       O  0.87343956  0.10267259  0.37257103    -0.92950
O2202       O  0.85964417  0.15151052  0.31002269    -0.91850
C2203       C  0.80705760  0.07284490  0.27406203     1.02220
C2204       C  0.93266314  0.08294829  0.37022571     1.00930
C2205       C  0.83457721  0.20648611  0.27455102     1.00320
C2206       C  0.71583450  0.07390538  0.36926462     1.02340
C2207       C  0.88693751  0.09774054  0.43774699     1.01260
C2208       C  0.00537393  0.23230121  0.34585854     1.00100
C2209       C  0.93786700  0.17716690  0.27426838     1.00160
C2210       C  0.79395745  0.00636575  0.34517943     1.02780
H2211       H  0.94726957  0.16572955  0.33300602     0.30150
O2212       O  0.92317608  0.16409199  0.34016906    -1.05110
H2213       H  0.78580570  0.06416034  0.33281732     0.32200
O2214       O  0.80852627  0.08818073  0.34004740    -1.07680
O2215       O  0.73020123  0.43935862  0.72060054    -0.80240
O2216       O  0.75233842  0.30756072  0.61974179    -0.81790
O2217       O  0.81647284  0.40500786  0.66115180    -0.78810
O2218       O  0.70294706  0.38868324  0.61968274    -0.77200
O2219       O  0.63546355  0.34194545  0.61796603    -0.78990
O2220       O  0.82426144  0.37949796  0.70140644    -0.79920
O2221       O  0.77344830  0.37492585  0.61784987    -0.81240
O2222       O  0.76654150  0.44734024  0.68192379    -0.81530
Eu2223     Eu  0.74328807  0.38191664  0.65846207     2.39200
O2224       O  0.69244208  0.31809430  0.64385656    -0.89040
O2225       O  0.74191157  0.38133219  0.70621726    -0.92650
C2226       C  0.76045503  0.46053427  0.70473300     1.02040
C2227       C  0.77178176  0.34320886  0.60830636     1.01860
C2228       C  0.83783029  0.39779013  0.67822528     1.01810
C2229       C  0.66717105  0.37228301  0.60835351     0.99660
H2230       H  0.77958643  0.33150651  0.66673059     0.29410
O2231       O  0.75570110  0.33031963  0.67387245    -1.01430
H2232       H  0.67979167  0.39146844  0.66666537     0.29450
O2233       O  0.68070637  0.36864795  0.67391527    -1.03970
O2234       O  0.65534694  0.19451195  0.66123551    -0.81200
O2235       O  0.62973194  0.32619177  0.75958666    -0.80740
O2236       O  0.77617711  0.28074996  0.72079261    -0.79170
O2237       O  0.62064969  0.25750057  0.61945212    -0.82510
O2238       O  0.60628595  0.35482353  0.66113346    -0.80370
O2239       O  0.76530211  0.38167312  0.75946856    -0.79020
O2240       O  0.68493955  0.24753126  0.75984062    -0.80540
O2241       O  0.57125112  0.23412760  0.72095695    -0.82460
O2242       O  0.75161020  0.29632380  0.76272018    -0.79200
O2243       O  0.56328345  0.26167773  0.68172293    -0.81880
O2244       O  0.74722789  0.24425135  0.68217490    -0.77610
O2245       O  0.71663923  0.39917178  0.76250803    -0.77640
O2246       O  0.63257960  0.38863048  0.70110299    -0.77290
O2247       O  0.66707945  0.23677913  0.61820592    -0.80790
O2248       O  0.62176011  0.18647848  0.70129450    -0.80210
O2249       O  0.61159156  0.25969239  0.76269854    -0.78540
Eu2250     Eu  0.70541567  0.26763402  0.65859537     2.39770
Eu2251     Eu  0.67785233  0.36716045  0.72197048     2.39570
Eu2252     Eu  0.75725451  0.33350503  0.72189716     2.38400
Eu2253     Eu  0.62870083  0.30449646  0.65848785     2.39880
Eu2254     Eu  0.64329489  0.25349331  0.72210135     2.39790
O2255       O  0.62963367  0.30372719  0.70627874    -0.92950
O2256       O  0.70663967  0.26933757  0.70634388    -0.91850
C2257       C  0.62649749  0.17309994  0.67809418     1.02220
C2258       C  0.61126344  0.29091465  0.77143925     1.00930
C2259       C  0.76664679  0.25039312  0.70502919     1.00320
C2260       C  0.63688104  0.23810289  0.60834421     1.02340
C2261       C  0.61423069  0.38379790  0.67790792     1.01260
C2262       C  0.74855082  0.39997278  0.77124695     1.00100
C2263       C  0.72030956  0.26474412  0.77165607     1.00160
C2264       C  0.55021385  0.24306064  0.70484984     1.02780
H2265       H  0.69303206  0.31817258  0.75692291     0.30150
O2266       O  0.69288508  0.31803423  0.73723911    -1.05110
H2267       H  0.61850198  0.23099297  0.66683700     0.32200
O2268       O  0.64138119  0.25487932  0.67404491    -1.07680
O2269       O  0.70082016  0.25533410  0.12138269    -0.80240
O2270       O  0.56797517  0.28076918  0.21883999    -0.81790
O2271       O  0.60848241  0.19674369  0.16017683    -0.78810
O2272       O  0.62060453  0.30856196  0.12026783    -0.77200
O2273       O  0.66898072  0.37541992  0.11834510    -0.78990
O2274       O  0.63560737  0.18881453  0.19967527    -0.79920
O2275       O  0.56021111  0.24731548  0.17875751    -0.81240
O2276       O  0.63420747  0.23694934  0.11828390    -0.81530
Eu2277     Eu  0.62735397  0.26856817  0.15873135     2.39200
O2278       O  0.64245560  0.33163044  0.17481934    -0.89040
O2279       O  0.67748733  0.25507112  0.17499822    -0.92650
C2280       C  0.66552348  0.23675261  0.10953218     1.02040
C2281       C  0.54663154  0.25214053  0.20179819     1.01860
C2282       C  0.61751386  0.17589565  0.17637986     1.01810
C2283       C  0.63794331  0.34408274  0.10879210     0.99660
H2284       H  0.60459603  0.24393840  0.21370651     0.29410
O2285       O  0.62876988  0.26679657  0.20679680    -1.01430
H2286       H  0.69203371  0.31832756  0.12413665     0.29450
O2287       O  0.69179745  0.31818986  0.14381762    -1.03970
O2288       O  0.68018216  0.37702878  0.26203579    -0.81200
O2289       O  0.81312497  0.35493799  0.16154610    -0.80740
O2290       O  0.62947049  0.24436257  0.26067431    -0.79170
O2291       O  0.65429170  0.40161747  0.16134044    -0.82510
O2292       O  0.75478153  0.39043920  0.12171500    -0.80370
O2293       O  0.72829969  0.23111493  0.21984742    -0.79020
O2294       O  0.76369497  0.32965101  0.26197697    -0.80540
O2295       O  0.77890867  0.44160008  0.21956740    -0.82460
O2296       O  0.71694778  0.26220205  0.26333103    -0.79200
O2297       O  0.75277926  0.44923197  0.17951183    -0.81880
O2298       O  0.60864305  0.29061530  0.26217777    -0.77610
O2299       O  0.76125281  0.25679167  0.17954739    -0.77640
O2300       O  0.77261331  0.34199288  0.11902422    -0.77290
O2301       O  0.61950875  0.37437799  0.20080717    -0.80790
O2302       O  0.74775816  0.39877886  0.26339408    -0.80210
O2303       O  0.82090745  0.39074679  0.20046204    -0.78540
Eu2304     Eu  0.64121874  0.33043901  0.22269919     2.39770
Eu2305     Eu  0.74081873  0.30314992  0.15938662     2.39570
Eu2306     Eu  0.67833993  0.25409229  0.22279245     2.38400
Eu2307     Eu  0.70666530  0.38219140  0.15933080     2.39880
Eu2308     Eu  0.75531942  0.36839501  0.22302270     2.39790
O2309       O  0.75470852  0.36705632  0.17521688    -0.92950
O2310       O  0.69162441  0.31752528  0.23795136    -0.91850
C2311       C  0.71603034  0.39687619  0.27320659     1.02220
C2312       C  0.83422465  0.38482637  0.17769119     1.00930
C2313       C  0.60937555  0.25992445  0.27160300     1.00320
C2314       C  0.62495328  0.39324786  0.17784364     1.02340
C2315       C  0.77312334  0.37362038  0.11010288     1.01260
C2316       C  0.75677966  0.23855229  0.20271645     1.00100
C2317       C  0.74734346  0.29384884  0.27309745     1.00160
C2318       C  0.77172069  0.46295609  0.20246865     1.02780
H2319       H  0.76509341  0.30468526  0.21460664     0.30150
O2320       O  0.74239692  0.30595714  0.20742403    -1.05110
H2321       H  0.70518724  0.40457815  0.21457991     0.32200
O2322       O  0.70382358  0.38065885  0.20737428    -1.07680
O2323       O  0.51629557  0.04273825  0.59502838    -0.80240
O2324       O  0.64738410  0.02146677  0.49417786    -0.81790
O2325       O  0.59476205  0.99394928  0.59478972    -0.78810
O2326       O  0.61238571  0.10795159  0.55290977    -0.77200
O2327       O  0.58674955  0.11586976  0.51273432    -0.78990
O2328       O  0.54829103  0.42646647  0.59640513    -0.79920
O2329       O  0.65540339  0.05695030  0.53328854    -0.81240
O2330       O  0.58386426  0.06443684  0.59661692    -0.81530
Eu2331     Eu  0.58965209  0.03468065  0.55565024     2.39200
O2332       O  0.58903777  0.03344408  0.50790661    -0.89040
O2333       O  0.52592602  0.48396107  0.57030202    -0.92650
C2334       C  0.55201475  0.06209324  0.60647124     1.02040
C2335       C  0.66854893  0.05130705  0.51033979     1.01860
C2336       C  0.57820563  0.45827952  0.60620524     1.01810
C2337       C  0.60517727  0.12941274  0.53589480     0.99660
H2338       H  0.59928993  0.47096007  0.54750492     0.29410
O2339       O  0.57658743  0.47213407  0.54022513    -1.01430
H2340       H  0.53925902  0.07094438  0.54747203     0.29450
O2341       O  0.53820221  0.04723495  0.54014789    -1.03970
O2342       O  0.53508911  0.42243313  0.45384413    -0.81200
O2343       O  0.90235855  0.44750065  0.55249971    -0.80740
O2344       O  0.56224325  0.39755122  0.55266459    -0.79170
O2345       O  0.59086697  0.05802747  0.45511510    -0.82510
O2346       O  0.98901241  0.06848273  0.49384281    -0.80370
O2347       O  0.96525440  0.41237645  0.59448367    -0.79020
O2348       O  0.94201869  0.36277317  0.49366626    -0.80540
O2349       O  0.95317105  0.47460102  0.45416329    -0.82460
O2350       O  0.96861220  0.35465753  0.53331052    -0.79200
O2351       O  0.00203689  0.04121851  0.45141374    -0.81880
O2352       O  0.59562546  0.42324635  0.51249921    -0.77610
O2353       O  0.94462740  0.45882531  0.59590954    -0.77640
O2354       O  0.95387139  0.04101002  0.53320199    -0.77290
O2355       O  0.60868880  0.00960975  0.45240300    -0.80790
O2356       O  0.96834477  0.40382952  0.45125843    -0.80210
O2357       O  0.89437084  0.41372806  0.51253721    -0.78540
Eu2358     Eu  0.57508129  0.46952455  0.49214353     2.39770
Eu2359     Eu  0.97567772  0.49718415  0.55562107     2.39570
Eu2360     Eu  0.51218269  0.42034128  0.55550249     2.38400
Eu2361     Eu  0.54120387  0.04884779  0.49205107     2.39880
Eu2362     Eu  0.96135390  0.43481559  0.49196430     2.39790
O2363       O  0.97718413  0.49817534  0.50781234    -0.92950
O2364       O  0.51156337  0.42109282  0.50770470    -0.91850
C2365       C  0.49967512  0.40398523  0.44215383     1.02220
C2366       C  0.88089582  0.41869789  0.53560866     1.00930
C2367       C  0.59088663  0.40497568  0.53570064     1.00320
C2368       C  0.60983931  0.04167200  0.44369389     1.02340
C2369       C  0.95938857  0.05980032  0.51014844     1.01260
C2370       C  0.94589478  0.42857163  0.60566042     1.00100
C2371       C  0.95036642  0.34162388  0.51010580     1.00160
C2372       C  0.97022236  0.00994751  0.44249164     1.02780
H2373       H  0.93862357  0.41034621  0.54721292     0.30150
O2374       O  0.96258720  0.43313589  0.54000386    -1.05110
H2375       H  0.52607247  0.98486451  0.45704263     0.32200
O2376       O  0.52588511  0.48456740  0.47672851    -1.07680
C2377       C  0.64616791  0.17687084  0.84622117    -0.00260
C2378       C  0.63685315  0.17938313  0.87331371    -0.12140
C2379       C  0.59869445  0.15278286  0.88332677     0.01970
C2380       C  0.56955726  0.12277219  0.86594364    -0.00350
C2381       C  0.57876661  0.12046301  0.83878462    -0.12080
C2382       C  0.61692879  0.14714095  0.82875781     0.01860
H2383       H  0.65924103  0.20257074  0.88647833     0.14840
H2384       H  0.55642031  0.09720489  0.82564144     0.14840
C2385       C  0.62547592  0.14278306  0.80068923     0.36490
C2386       C  0.59018708  0.15728350  0.91138608     0.36400
N2387       N  0.63219999  0.13952393  0.77815662    -0.43850
N2388       N  0.58352984  0.16066067  0.93391345    -0.43850
C2389       C  0.55765669  0.27405176  0.03008391    -0.00260
C2390       C  0.51724137  0.25965664  0.03690493    -0.12140
C2391       C  0.98804969  0.21997052  0.03144446     0.01970
C2392       C  0.49950633  0.19445612  0.01899428    -0.00350
C2393       C  0.53997124  0.20873403  0.01230211    -0.12080
C2394       C  0.56923859  0.24846801  0.01785744     0.01860
H2395       H  0.50876542  0.27924744  0.04715779     0.14840
H2396       H  0.54835925  0.18916383  0.00193142     0.14840
C2397       C  0.61062843  0.26260216  0.01049914     0.36490
C2398       C  0.94668747  0.20598867  0.03878981     0.36400
N2399       N  0.64374547  0.27392468  0.00446095    -0.43850
N2400       N  0.91361603  0.19488171  0.04482049    -0.43850
C2401       C  0.90187173  0.29062855  0.19623370    -0.00260
C2402       C  0.91872206  0.33028670  0.20568792    -0.12140
C2403       C  0.95838853  0.35879516  0.19940037     0.01970
C2404       C  0.98120007  0.34719238  0.18363096    -0.00350
C2405       C  0.96425912  0.30759709  0.17405582    -0.12080
C2406       C  0.92460454  0.27912950  0.18029748     0.01860
H2407       H  0.90115904  0.33853531  0.21859821     0.14840
H2408       H  0.98186389  0.29928410  0.16123863     0.14840
C2409       C  0.90779954  0.23848449  0.17029488     0.36490
C2410       C  0.97524256  0.39942841  0.20943136     0.36400
N2411       N  0.89421854  0.20594443  0.16219755    -0.43850
N2412       N  0.98883996  0.43195557  0.21755904    -0.43850
C2413       C  0.81419593  0.01038300  0.51300732    -0.00260
C2414       C  0.80201964  0.01760529  0.53803650    -0.12140
C2415       C  0.76323961  0.49172705  0.54739170     0.01970
C2416       C  0.73660740  0.45796953  0.53150682    -0.00350
C2417       C  0.74868102  0.45093522  0.50636079    -0.12080
C2418       C  0.78744414  0.47690789  0.49696251     0.01860
H2419       H  0.82256426  0.04380992  0.54994146     0.14840
H2420       H  0.72819396  0.42465920  0.49449603     0.14840
C2421       C  0.79929209  0.46843378  0.47100809     0.36490
C2422       C  0.75139639  0.50037963  0.57328116     0.36400
N2423       N  0.80877888  0.46183531  0.45017394    -0.43850
N2424       N  0.74194346  0.50709174  0.59408500    -0.43850
C2425       C  0.72353207  0.10577859  0.70166053    -0.00260
C2426       C  0.72140160  0.09893639  0.67362912    -0.12140
C2427       C  0.69360405  0.06156991  0.66305435     0.01970
C2428       C  0.66700729  0.03035589  0.68092723    -0.00350
C2429       C  0.66955205  0.03704851  0.70898656    -0.12080
C2430       C  0.69740355  0.07435225  0.71956643     0.01860
H2431       H  0.74170666  0.12285649  0.65998486     0.14840
H2432       H  0.64905708  0.01327113  0.72264490     0.14840
C2433       C  0.69739996  0.07940184  0.74878045     0.36490
C2434       C  0.69354879  0.05641531  0.63385029     0.36400
N2435       N  0.69756646  0.08294870  0.77221563    -0.43850
N2436       N  0.69320935  0.05274765  0.61041927    -0.43850
C2437       C  0.82801126  0.36038880  0.35270586    -0.00260
C2438       C  0.86813130  0.37593637  0.34455502    -0.12140
C2439       C  0.89707178  0.41537726  0.35081372     0.01970
C2440       C  0.88548131  0.43921724  0.36535343    -0.00350
C2441       C  0.84542320  0.42360999  0.37365431    -0.12080
C2442       C  0.81645808  0.38419216  0.36732978     0.01860
H2443       H  0.87643967  0.35756114  0.33258559     0.14840
H2444       H  0.83709483  0.44205762  0.38552179     0.14840
C2445       C  0.77532861  0.36867989  0.37598751     0.36490
C2446       C  0.93811312  0.43103698  0.34187308     0.36400
N2447       N  0.74239507  0.35614665  0.38301946    -0.43850
N2448       N  0.97096491  0.44371302  0.33460231    -0.43850
C2449       C  0.93112584  0.02986031  0.17974760    -0.00260
C2450       C  0.94627462  0.04106578  0.20611469    -0.12140
C2451       C  0.95754845  0.07930439  0.21558787     0.01970
C2452       C  0.95295088  0.10644586  0.19844463    -0.00350
C2453       C  0.93810740  0.09534354  0.17198604    -0.12080
C2454       C  0.92696959  0.05713040  0.16247822     0.01860
H2455       H  0.94985972  0.02013555  0.21907383     0.14840
H2456       H  0.93438532  0.11620824  0.15905172     0.14840
C2457       C  0.91067867  0.04638285  0.13517302     0.36490
C2458       C  0.97413340  0.09007809  0.24281956     0.36400
N2459       N  0.89789135  0.03783687  0.11325939    -0.43850
N2460       N  0.98715127  0.09862884  0.26467699    -0.43850
C2461       C  0.61718039  0.11988309  0.36253313    -0.00260
C2462       C  0.58122899  0.11753049  0.37147068    -0.12140
C2463       C  0.57471973  0.14984526  0.36854820     0.01970
C2464       C  0.60241494  0.18430860  0.35381039    -0.00350
C2465       C  0.63849319  0.18680998  0.34511425    -0.12080
C2466       C  0.64454556  0.15417037  0.34745816     0.01860
H2467       H  0.55883147  0.09102713  0.38231868     0.14840
H2468       H  0.66073358  0.21324748  0.33411009     0.14840
C2469       C  0.67459744  0.15436432  0.33000954     0.36490
C2470       C  0.54240624  0.14851211  0.38403034     0.36400
N2471       N  0.69637620  0.15308114  0.31439465    -0.43850
N2472       N  0.51842933  0.14895050  0.39793807    -0.43850
C2473       C  0.76616633  0.01611645  0.02080859    -0.00260
C2474       C  0.74158435  0.47598106  0.01264488    -0.12140
C2475       C  0.75246574  0.44741286  0.01880893     0.01970
C2476       C  0.78839181  0.45934171  0.03320802    -0.00350
C2477       C  0.81283483  0.49940560  0.04156605    -0.12080
C2478       C  0.80192328  0.02798439  0.03540191     0.01860
H2479       H  0.71455338  0.46735576  0.00074302     0.14840
H2480       H  0.83988072  0.00800873  0.05344319     0.14840
C2481       C  0.82739560  0.06901944  0.04432778     0.36490
C2482       C  0.72678027  0.40630416  0.01003989     0.36400
N2483       N  0.84764728  0.10184965  0.05165363    -0.43850
N2484       N  0.70631129  0.37339627  0.00291821    -0.43850
C2485       C  0.76440086  0.19658692  0.51262976    -0.00260
C2486       C  0.78136458  0.20787303  0.53855566    -0.12140
C2487       C  0.79324274  0.24612215  0.54829309     0.01970
C2488       C  0.78734643  0.27310846  0.53193535    -0.00350
C2489       C  0.77067872  0.26193721  0.50590752    -0.12080
C2490       C  0.75903279  0.22375165  0.49609024     0.01860
H2491       H  0.78598673  0.18705519  0.55090164     0.14840
H2492       H  0.76601004  0.28273258  0.49357478     0.14840
C2493       C  0.74113924  0.21293393  0.46921442     0.36490
C2494       C  0.81194956  0.25719620  0.57490646     0.36400
N2495       N  0.72706640  0.20430804  0.44763292    -0.43850
N2496       N  0.82682547  0.26606499  0.59623935    -0.43850
C2497       C  0.93255498  0.34855652  0.68591782    -0.00260
C2498       C  0.97086254  0.36248483  0.69708039    -0.12140
C2499       C  0.98263065  0.33521968  0.70515079     0.01970
C2500       C  0.95597895  0.29367384  0.70133642    -0.00350
C2501       C  0.91754134  0.27974295  0.69040795    -0.12080
C2502       C  0.90566086  0.30697005  0.68253927     0.01860
H2503       H  0.99154819  0.39459119  0.69922218     0.14840
H2504       H  0.89689123  0.24763913  0.68817740     0.14840
C2505       C  0.86659161  0.29181145  0.66995467     0.36490
C2506       C  0.52121974  0.35026000  0.71843567     0.36400
N2507       N  0.83544500  0.27984549  0.65969451    -0.43850
N2508       N  0.55185911  0.36215984  0.72942569    -0.43850
C2509       C  0.59791818  0.36370071  0.84709591    -0.00260
C2510       C  0.59127524  0.38914668  0.82991235    -0.12140
C2511       C  0.60179589  0.42773740  0.83825812     0.01970
C2512       C  0.61898849  0.44081433  0.86416119    -0.00350
C2513       C  0.62605294  0.41550911  0.88119459    -0.12080
C2514       C  0.61541106  0.37690809  0.87290181     0.01860
H2515       H  0.57770288  0.37865863  0.80996797     0.14840
H2516       H  0.63958631  0.42594084  0.90115629     0.14840
C2517       C  0.62332069  0.35181722  0.89086763     0.36490
C2518       C  0.59370431  0.45277897  0.82038109     0.36400
N2519       N  0.62957843  0.33170251  0.90530518    -0.43850
N2520       N  0.58729565  0.47286576  0.80602202    -0.43850
C2521       C  0.67229825  0.08451560  0.17830879    -0.00260
C2522       C  0.70033496  0.08493136  0.15971704    -0.12140
C2523       C  0.72816841  0.07397781  0.16794211     0.01970
C2524       C  0.72825715  0.06299184  0.19524150    -0.00350
C2525       C  0.70001111  0.06236454  0.21372570    -0.12080
C2526       C  0.67239462  0.07345915  0.20558198     0.01860
H2527       H  0.70030165  0.09371947  0.13866518     0.14840
H2528       H  0.69961205  0.05316464  0.23472911     0.14840
C2529       C  0.64414269  0.07239344  0.22540389     0.36490
C2530       C  0.75635001  0.07470990  0.14822450     0.36400
N2531       N  0.62181387  0.07188194  0.24139053    -0.43850
N2532       N  0.77866500  0.07498742  0.13232381    -0.43850
C2533       C  0.57055384  0.39186826  0.36456323    -0.00260
C2534       C  0.58130701  0.36208982  0.36643831    -0.12140
C2535       C  0.62044424  0.37129461  0.36058511     0.01970
C2536       C  0.64909689  0.41075087  0.35270590    -0.00350
C2537       C  0.63844562  0.44061467  0.35101470    -0.12080
C2538       C  0.59929084  0.43141569  0.35687089     0.01860
H2539       H  0.55936829  0.33195315  0.37322368     0.14840
H2540       H  0.66035980  0.47069918  0.34412455     0.14840
C2541       C  0.58888546  0.46252822  0.35434610     0.36490
C2542       C  0.63084595  0.34017040  0.36298120     0.36400
N2543       N  0.58028576  0.48725049  0.35227229    -0.43850
N2544       N  0.63950538  0.31548224  0.36494898    -0.43850
C2545       C  0.73710826  0.22071443  0.03409492    -0.00260
C2546       C  0.76222413  0.25828012  0.02217917    -0.12140
C2547       C  0.80150667  0.26940948  0.01510246     0.01970
C2548       C  0.81581750  0.24271096  0.02038251    -0.00350
C2549       C  0.79079117  0.20524304  0.03246743    -0.12080
C2550       C  0.75153721  0.19419061  0.03965788     0.01860
H2551       H  0.75110192  0.27882677  0.01853628     0.14840
H2552       H  0.80185343  0.18462230  0.03598262     0.14840
C2553       C  0.72717322  0.15642082  0.05373247     0.36490
C2554       C  0.82598736  0.30741969  0.00131275     0.36400
N2555       N  0.70769984  0.12642661  0.06528652    -0.43850
N2556       N  0.84560046  0.33765434  0.99005463    -0.43850
C2557       C  0.49947029  0.24598678  0.51510803    -0.00260
C2558       C  0.54031534  0.27586842  0.51417979    -0.12140
C2559       C  0.57001908  0.26645375  0.52031214     0.01970
C2560       C  0.55863360  0.22662413  0.52745191    -0.00350
C2561       C  0.51781082  0.19670835  0.52819312    -0.12080
C2562       C  0.98811685  0.20612365  0.52214023     0.01860
H2563       H  0.54895985  0.30627855  0.50792990     0.14840
H2564       H  0.50913899  0.16633828  0.53457333     0.14840
C2565       C  0.94627771  0.17476364  0.52373814     0.36490
C2566       C  0.61187076  0.29783235  0.51903570     0.36400
N2567       N  0.91275735  0.14970681  0.52506174    -0.43850
N2568       N  0.64541529  0.32288817  0.51796296    -0.43850
C2569       C  0.89111797  0.39157358  0.86149388    -0.00260
C2570       C  0.90495457  0.42955112  0.84992164    -0.12140
C2571       C  0.87767178  0.44164152  0.84254900     0.01970
C2572       C  0.83621284  0.41560334  0.84724353    -0.00350
C2573       C  0.82235460  0.37746196  0.85858926    -0.12080
C2574       C  0.84960910  0.36534500  0.86597774     0.01860
H2575       H  0.93704062  0.44987574  0.84713751     0.14840
H2576       H  0.79029336  0.35726457  0.86158439     0.14840
C2577       C  0.83468761  0.32693604  0.87944897     0.36490
C2578       C  0.89260906  0.48015016  0.82936484     0.36400
N2579       N  0.82296240  0.29641190  0.89051348    -0.43850
N2580       N  0.90446543  0.01087508  0.81860954    -0.43850
C2581       C  0.90541718  0.06257481  0.70151469    -0.00260
C2582       C  0.91174783  0.06524773  0.67338435    -0.12140
C2583       C  0.94862286  0.07341076  0.66284118     0.01970
C2584       C  0.97986738  0.07847584  0.68084194    -0.00350
C2585       C  0.97369275  0.07630127  0.70894918    -0.12080
C2586       C  0.93707317  0.06873115  0.71948996     0.01860
H2587       H  0.88780309  0.06116629  0.65960006     0.14840
H2588       H  0.99752164  0.08014238  0.72276440     0.14840
C2589       C  0.93335207  0.06721731  0.74881691     0.36490
C2590       C  0.95332213  0.07700467  0.63354136     0.36400
N2591       N  0.93123620  0.06721370  0.77233440    -0.43850
N2592       N  0.95665008  0.57925729  0.61005409    -0.43850
C2593       C  0.79351661  0.00071595  0.71456526     0.03020
C2594       C  0.83089318  0.51743731  0.70115846    -0.13130
C2595       C  0.86508525  0.55122228  0.71157447     0.00520
C2596       C  0.86169699  0.57112134  0.73386528    -0.11650
C2597       C  0.82710015  0.55335857  0.74965845     0.03010
C2598       C  0.79203237  0.51849384  0.73968591    -0.11070
H2599       H  0.83449673  0.00235993  0.68371182     0.08610
H2600       H  0.88780951  0.59911178  0.74035990     0.06140
H2601       H  0.76480713  0.50453365  0.75180784     0.05990
C2602       C  0.59218498  0.63342352  0.66850199     0.03020
C2603       C  0.55487008  0.61920916  0.68158571    -0.13130
C2604       C  0.51944583  0.58722787  0.67084732     0.00520
C2605       C  0.52117362  0.56614864  0.64867070    -0.11650
C2606       C  0.55601790  0.58137348  0.63328982     0.03010
C2607       C  0.59234628  0.61479706  0.64345517    -0.11070
H2608       H  0.55244397  0.63524443  0.69890476     0.08610
H2609       H  0.49388128  0.53936656  0.64202964     0.06140
H2610       H  0.61969330  0.62714267  0.63150491     0.05990
C2611       C  0.77980162  0.97041591  0.83403847     0.03020
C2612       C  0.80183661  0.95549417  0.84776755    -0.13130
C2613       C  0.80673536  0.92519515  0.83638878     0.00520
C2614       C  0.78834054  0.90745752  0.81204231    -0.11650
C2615       C  0.76603423  0.92070867  0.79753659     0.03010
C2616       C  0.76146662  0.95248359  0.80857613    -0.11070
H2617       H  0.81815528  0.96937116  0.86640114     0.08610
H2618       H  0.79286570  0.88378990  0.80398373     0.06140
H2619       H  0.74536381  0.96405212  0.79707049     0.05990
C2620       C  0.94559929  0.83649060  0.87897682     0.03020
C2621       C  0.92667376  0.85295612  0.86320908    -0.13130
C2622       C  0.92035477  0.88284815  0.87376622     0.00520
C2623       C  0.93502277  0.89921578  0.89916833    -0.11650
C2624       C  0.95464062  0.88473543  0.91534510     0.03010
C2625       C  0.96015839  0.85310825  0.90528061    -0.11070
H2626       H  0.91298319  0.84002606  0.84370824     0.08610
H2627       H  0.92948332  0.92248110  0.90671710     0.06140
H2628       H  0.97380426  0.84038340  0.91825533     0.05990
C2629       C  0.94466513  0.80213096  0.50049513     0.03020
C2630       C  0.96552256  0.78641478  0.51485284    -0.13130
C2631       C  0.97021704  0.75575583  0.50382801     0.00520
C2632       C  0.95283443  0.73875224  0.47904315    -0.11650
C2633       C  0.93146963  0.75267049  0.46410658     0.03010
C2634       C  0.92706014  0.78459292  0.47486508    -0.11070
H2635       H  0.48116323  0.79995232  0.53374764     0.08610
H2636       H  0.95745698  0.71517200  0.47094650     0.06140
H2637       H  0.91183013  0.79672233  0.46294120     0.05990
C2638       C  0.61132497  0.66947408  0.54503197     0.03020
C2639       C  0.59269813  0.68637734  0.52938824    -0.13130
C2640       C  0.58737889  0.71703686  0.53981992     0.00520
C2641       C  0.60226969  0.73318576  0.56529650    -0.11650
C2642       C  0.62156368  0.71832716  0.58148399     0.03010
C2643       C  0.62634464  0.68619088  0.57134526    -0.11070
H2644       H  0.57884056  0.67352317  0.50991166     0.08610
H2645       H  0.59720923  0.75671827  0.57292754     0.06140
H2646       H  0.63983931  0.67323636  0.58424423     0.05990
C2647       C  0.92608162  0.79784051  0.00439804     0.03020
C2648       C  0.89033466  0.78110279  0.01977208    -0.13130
C2649       C  0.85410196  0.75083790  0.00898700     0.00520
C2650       C  0.85284280  0.73412449  0.98384341    -0.11650
C2651       C  0.88733821  0.74885359  0.96800756     0.03010
C2652       C  0.92445334  0.78096046  0.97829209    -0.11070
H2653       H  0.88924068  0.79427946  0.03900991     0.08610
H2654       H  0.82399813  0.71063348  0.97609175     0.06140
H2655       H  0.95107183  0.79395053  0.96556261     0.05990
C2656       C  0.62575659  0.66581592  0.04702920     0.03020
C2657       C  0.62557594  0.68384970  0.07238271    -0.13130
C2658       C  0.66209334  0.71627448  0.08319055     0.00520
C2659       C  0.69763282  0.73004042  0.06858003    -0.11650
C2660       C  0.69807029  0.71204594  0.04438915     0.03010
C2661       C  0.66261604  0.68138091  0.03311573    -0.11070
H2662       H  0.59802414  0.67172571  0.08408161     0.08610
H2663       H  0.72601612  0.75398539  0.07659332     0.06140
H2664       H  0.66495715  0.66739410  0.01460896     0.05990
C2665       C  0.95956646  0.83429819  0.37920323     0.03020
C2666       C  0.99598488  0.85109862  0.36459879    -0.13130
C2667       C  0.53146435  0.88233081  0.37550941     0.00520
C2668       C  0.53124401  0.89927497  0.40027374    -0.11650
C2669       C  0.99607976  0.88431125  0.41548062     0.03010
C2670       C  0.95966991  0.85160335  0.40489303    -0.11070
H2671       H  0.99806993  0.83775646  0.34570213     0.08610
H2672       H  0.55955591  0.92334720  0.40827367     0.06140
H2673       H  0.93248385  0.83862331  0.41704486     0.05990
C2674       C  0.75963670  0.96624209  0.33619519     0.03020
C2675       C  0.72378129  0.95011598  0.35142168    -0.13130
C2676       C  0.68745926  0.91971320  0.34080388     0.00520
C2677       C  0.68610747  0.90282206  0.31567042    -0.11650
C2678       C  0.72059138  0.91688079  0.29992638     0.03010
C2679       C  0.75787929  0.94892279  0.31019123    -0.11070
H2680       H  0.72284266  0.96346081  0.37062301     0.08610
H2681       H  0.65722240  0.87941307  0.30792770     0.06140
H2682       H  0.78460109  0.96139268  0.29758543     0.05990
C2683       C  0.61325074  0.63724854  0.16626407     0.03020
C2684       C  0.63748212  0.62418571  0.17908655    -0.13130
C2685       C  0.64199794  0.59350045  0.16795389     0.00520
C2686       C  0.62100895  0.57372170  0.14475713    -0.11650
C2687       C  0.59795874  0.58629049  0.13059302     0.03010
C2688       C  0.59348882  0.61815687  0.14145343    -0.11070
H2689       H  0.65574122  0.63991804  0.19668185     0.08610
H2690       H  0.62421613  0.54901079  0.13717574     0.06140
H2691       H  0.57635958  0.62888470  0.13028813     0.05990
C2692       C  0.77910288  0.00350916  0.21124458     0.03020
C2693       C  0.76033593  0.52063040  0.19594370    -0.13130
C2694       C  0.75780219  0.55316003  0.20601195     0.00520
C2695       C  0.77654543  0.57132763  0.23025161    -0.11650
C2696       C  0.79297273  0.55422297  0.24691950     0.03010
C2697       C  0.79530327  0.52053691  0.23725885    -0.11070
H2698       H  0.74393276  0.00631853  0.17743842     0.08610
H2699       H  0.77511308  0.59736125  0.23717641     0.06140
H2700       H  0.80759052  0.50660502  0.25035936     0.05990
C2701       C  0.54122940  0.75213985  0.83450627     0.03020
C2702       C  0.55726596  0.78920141  0.84818942    -0.13130
C2703       C  0.58795755  0.82435493  0.83659377     0.00520
C2704       C  0.60549497  0.82327267  0.81236221    -0.11650
C2705       C  0.59110149  0.78764875  0.79787699     0.03010
C2706       C  0.55870473  0.75143845  0.80899687    -0.11070
H2707       H  0.54358361  0.79187533  0.86674514     0.08610
H2708       H  0.62995281  0.85132648  0.80435594     0.06140
H2709       H  0.54621832  0.72374050  0.79745824     0.05990
C2710       C  0.67360330  0.55174310  0.87901457     0.03020
C2711       C  0.65787398  0.51551517  0.86427143    -0.13130
C2712       C  0.62753429  0.97945608  0.87523398     0.00520
C2713       C  0.60971192  0.97887749  0.89977426    -0.11650
C2714       C  0.62391257  0.51350070  0.91524992     0.03010
C2715       C  0.65609882  0.55052646  0.90486082    -0.11070
H2716       H  0.67183226  0.51411628  0.84547245     0.08610
H2717       H  0.58557587  0.95029251  0.90736540     0.06140
H2718       H  0.66852910  0.57743546  0.91725828     0.05990
C2719       C  0.87764036  0.90347722  0.66904163     0.03020
C2720       C  0.89386043  0.88401029  0.68441974    -0.13130
C2721       C  0.92355947  0.87758240  0.67360241     0.00520
C2722       C  0.93999692  0.89261234  0.64825748    -0.11650
C2723       C  0.92598641  0.91301647  0.63241405     0.03010
C2724       C  0.89442937  0.91857385  0.64277884    -0.11070
H2725       H  0.88095953  0.87014004  0.70388086     0.08610
H2726       H  0.96313803  0.88697672  0.64055925     0.06140
H2727       H  0.88196773  0.93277157  0.63009894     0.05990
C2728       C  0.51095507  0.73769423  0.71487879     0.03020
C2729       C  0.49564435  0.75920204  0.70097011    -0.13130
C2730       C  0.96555146  0.76436479  0.71242324     0.00520
C2731       C  0.94815201  0.74648219  0.73695355    -0.11650
C2732       C  0.96159855  0.72441682  0.75153208     0.03010
C2733       C  0.99331287  0.71974981  0.74047027    -0.11070
H2734       H  0.50917378  0.77507432  0.68214626     0.08610
H2735       H  0.92458745  0.75115946  0.74505790     0.06140
H2736       H  0.50510848  0.70394290  0.75207789     0.05990
C2737       C  0.70826569  0.58495175  0.50047235     0.03020
C2738       C  0.72389534  0.62212647  0.51396604    -0.13130
C2739       C  0.75460349  0.65722418  0.50233064     0.00520
C2740       C  0.77313572  0.65589944  0.47868161    -0.11650
C2741       C  0.75848685  0.62036213  0.46410591     0.03010
C2742       C  0.72591754  0.58420999  0.47508037    -0.11070
H2743       H  0.70989737  0.62488929  0.53233501     0.08610
H2744       H  0.79806088  0.68383082  0.47090614     0.06140
H2745       H  0.71344631  0.55653554  0.46351721     0.05990
C2746       C  0.84110640  0.88449802  0.54511920     0.03020
C2747       C  0.82590426  0.84773198  0.53112438    -0.13130
C2748       C  0.79602783  0.81195165  0.54265427     0.00520
C2749       C  0.77751305  0.81212920  0.56666117    -0.11650
C2750       C  0.79153373  0.84719295  0.58162926     0.03010
C2751       C  0.82356790  0.88400088  0.57083604    -0.11070
H2752       H  0.83989094  0.84581001  0.51248841     0.08610
H2753       H  0.75322713  0.78374315  0.57438935     0.06140
H2754       H  0.83580472  0.91130257  0.58280463     0.05990
C2755       C  0.71024917  0.56979893  0.00371504     0.03020
C2756       C  0.72683508  0.55086062  0.01934720    -0.13130
C2757       C  0.75753828  0.54565649  0.00898031     0.00520
C2758       C  0.77438794  0.56117744  0.98380482    -0.11650
C2759       C  0.75964136  0.58055782  0.96759730     0.03010
C2760       C  0.72734618  0.58519159  0.97758002    -0.11070
H2761       H  0.71353436  0.53645347  0.03860341     0.08610
H2762       H  0.79817836  0.55632214  0.97638554     0.06140
H2763       H  0.71448164  0.59874470  0.96465254     0.05990
C2764       C  0.84308386  0.90332287  0.04742569     0.03020
C2765       C  0.82789696  0.92472092  0.03316757    -0.13130
C2766       C  0.79749061  0.92970218  0.04422407     0.00520
C2767       C  0.77994237  0.91208868  0.06878075    -0.11650
C2768       C  0.79352950  0.89046658  0.08372753     0.03010
C2769       C  0.82532573  0.88572376  0.07300776    -0.11070
H2770       H  0.84172239  0.94061093  0.01440570     0.08610
H2771       H  0.75623641  0.91674032  0.07664605     0.06140
H2772       H  0.83715475  0.87019386  0.08490042     0.05990
C2773       C  0.67523865  0.56574455  0.37897740     0.03020
C2774       C  0.65529130  0.58116032  0.36324938    -0.13130
C2775       C  0.62942134  0.59240387  0.37550583     0.00520
C2776       C  0.61868530  0.58181547  0.40273960    -0.11650
C2777       C  0.63093437  0.55889649  0.41737574     0.03010
C2778       C  0.66084340  0.55203398  0.40586647    -0.11070
H2779       H  0.66229963  0.58674042  0.34190464     0.08610
H2780       H  0.60016934  0.59147493  0.41296894     0.06140
H2781       H  0.67387782  0.53791823  0.41805054     0.05990
C2782       C  0.54583802  0.73977214  0.33653538     0.03020
C2783       C  0.56525308  0.72396930  0.35253702    -0.13130
C2784       C  0.59027420  0.71150364  0.34041033     0.00520
C2785       C  0.60041257  0.72065862  0.31297603    -0.11650
C2786       C  0.58869349  0.74364606  0.29805139     0.03010
C2787       C  0.55979481  0.75204520  0.30944759    -0.11070
H2788       H  0.55830981  0.71873079  0.37394606     0.08610
H2789       H  0.61811991  0.70990163  0.30285976     0.06140
H2790       H  0.54703009  0.76616172  0.29697772     0.05990
C2791       C  0.50673851  0.71801569  0.21108436     0.03020
C2792       C  0.99159368  0.68115589  0.19718669    -0.13130
C2793       C  0.96130778  0.64548698  0.20863517     0.00520
C2794       C  0.94233427  0.64602197  0.23231990    -0.11650
C2795       C  0.95690124  0.68103777  0.24739474     0.03010
C2796       C  0.98914601  0.71767734  0.23669558    -0.11070
H2797       H  0.50594994  0.67907624  0.17878619     0.08610
H2798       H  0.91765155  0.61782108  0.23996503     0.06140
H2799       H  0.50160581  0.74494300  0.24872195     0.05990
C2800       C  0.87422142  0.91813697  0.16803287     0.03020
C2801       C  0.89008452  0.95541347  0.18143976    -0.13130
C2802       C  0.92141872  0.99024916  0.16995502     0.00520
C2803       C  0.94035070  0.98841311  0.14666223    -0.11650
C2804       C  0.92511770  0.95287138  0.13202641     0.03010
C2805       C  0.89201660  0.91703202  0.14282193    -0.11070
H2806       H  0.87579631  0.95850683  0.19954191     0.08610
H2807       H  0.96576929  0.51607067  0.13899250     0.06140
H2808       H  0.87919227  0.88938563  0.13119442     0.05990
C2809       C  0.77472640  0.75089667  0.33572104     0.03020
C2810       C  0.79349282  0.78631597  0.35135475    -0.13130
C2811       C  0.79822280  0.82215997  0.34107279     0.00520
C2812       C  0.78213811  0.82346385  0.31608454    -0.11650
C2813       C  0.76298529  0.78939948  0.29981608     0.03010
C2814       C  0.75927721  0.75267846  0.30955543    -0.11070
H2815       H  0.80823186  0.78749422  0.37050262     0.08610
H2816       H  0.78654183  0.85209594  0.30879616     0.06140
H2817       H  0.74644380  0.72665208  0.29634740     0.05990
C2818       C  0.93882217  0.54949514  0.37995592     0.03020
C2819       C  0.91881478  0.51319648  0.36537497    -0.13130
C2820       C  0.91522991  0.97811837  0.37612755     0.00520
C2821       C  0.93326897  0.97839726  0.40060278    -0.11650
C2822       C  0.95340878  0.51339459  0.41598597     0.03010
C2823       C  0.95629711  0.54944542  0.40569751    -0.11070
H2824       H  0.90265577  0.51090730  0.34667466     0.08610
H2825       H  0.92969312  0.95024178  0.40822779     0.06140
H2826       H  0.97018955  0.57628993  0.41812483     0.05990
C2827       C  0.77358552  0.71741310  0.71489338     0.03020
C2828       C  0.75295426  0.68017264  0.70127341    -0.13130
C2829       C  0.75237031  0.64609169  0.71179710     0.00520
C2830       C  0.77541029  0.64937395  0.73432485    -0.11650
C2831       C  0.79230645  0.68383485  0.75016295     0.03010
C2832       C  0.79274844  0.71885270  0.74015657    -0.11070
H2833       H  0.73446031  0.67654647  0.68357413     0.08610
H2834       H  0.77686622  0.62317583  0.74096449     0.06140
H2835       H  0.80609852  0.74598673  0.75234694     0.05990
C2836       C  0.60921110  0.91812885  0.66830914     0.03020
C2837       C  0.59042802  0.91800494  0.64317805    -0.13130
C2838       C  0.59366341  0.95430479  0.63298811     0.00520
C2839       C  0.61360024  0.98909292  0.64837084    -0.11650
C2840       C  0.63629671  0.99076162  0.67073059     0.03010
C2841       C  0.63255734  0.95538463  0.68154816    -0.11070
H2842       H  0.57517197  0.89070342  0.63119169     0.08610
H2843       H  0.61438910  0.51639573  0.64165393     0.06140
H2844       H  0.65088133  0.95782657  0.69909016     0.05990
C2845       C  0.92581097  0.56591048  0.50041541     0.03020
C2846       C  0.88871045  0.54427195  0.51410164    -0.13130
C2847       C  0.85361865  0.53993011  0.50258737     0.00520
C2848       C  0.85481129  0.55969129  0.47881296    -0.11650
C2849       C  0.89029378  0.58089666  0.46417499     0.03010
C2850       C  0.92647746  0.58453666  0.47503295    -0.11070
H2851       H  0.88596370  0.52744030  0.53253262     0.08610
H2852       H  0.82683467  0.55648345  0.47105170     0.06140
H2853       H  0.95410714  0.59996833  0.46338892     0.05990
C2854       C  0.62521662  0.89977502  0.54517597     0.03020
C2855       C  0.66187669  0.92156679  0.53096752    -0.13130
C2856       C  0.69776393  0.92776869  0.54240785     0.00520
C2857       C  0.69786703  0.90937106  0.56657570    -0.11650
C2858       C  0.66294275  0.88807111  0.58168918     0.03010
C2859       C  0.62597869  0.88286567  0.57098052    -0.11070
H2860       H  0.66364518  0.93734474  0.51220353     0.08610
H2861       H  0.72637256  0.91384023  0.57426354     0.06140
H2862       H  0.59876267  0.86755700  0.58306276     0.05990
C2863       C  0.79126176  0.73332789  0.21180422     0.03020
C2864       C  0.82738146  0.75442066  0.19694163    -0.13130
C2865       C  0.86356554  0.76068605  0.20779012     0.00520
C2866       C  0.86480274  0.74427999  0.23262439    -0.11650
C2867       C  0.83011976  0.72264407  0.24804245     0.03010
C2868       C  0.79279621  0.71696823  0.23764558    -0.11070
H2869       H  0.82856088  0.76943852  0.17793383     0.08610
H2870       H  0.89371421  0.74986820  0.24030157     0.06140
H2871       H  0.76585829  0.70170247  0.25000382     0.05990
C2872       C  0.59166591  0.90005111  0.16860773     0.03020
C2873       C  0.55544734  0.88059257  0.18346830    -0.13130
C2874       C  0.52017911  0.87675075  0.17271227     0.00520
C2875       C  0.52022378  0.89388453  0.14791919    -0.11650
C2876       C  0.55509605  0.91347183  0.13236552     0.03010
C2877       C  0.59142296  0.91705655  0.14278308    -0.11070
H2878       H  0.55331197  0.86496403  0.20237798     0.08610
H2879       H  0.49196019  0.89001455  0.14020139     0.06140
H2880       H  0.61840102  0.93099077  0.13040526     0.05990
C2881       C  0.94127847  0.58360773  0.00351647     0.03020
C2882       C  0.96296958  0.61979002  0.01826264    -0.13130
C2883       C  0.96937396  0.65605193  0.00746697     0.00520
C2884       C  0.95278712  0.65725068  0.98266380    -0.11650
C2885       C  0.93085631  0.62256122  0.96727317     0.03010
C2886       C  0.92485901  0.58520584  0.97771863    -0.11070
H2887       H  0.97812810  0.62086839  0.03719257     0.08610
H2888       H  0.95853712  0.68616031  0.97494190     0.06140
H2889       H  0.90929048  0.55825172  0.96541737     0.05990
C2890       C  0.60867393  0.88422600  0.04573580     0.03020
C2891       C  0.59023278  0.84830351  0.03052120    -0.13130
C2892       C  0.58732044  0.81321637  0.04091277     0.00520
C2893       C  0.60445016  0.81337073  0.06578156    -0.11650
C2894       C  0.62274827  0.84787835  0.08177154     0.03010
C2895       C  0.62548672  0.88392341  0.07163043    -0.11070
H2896       H  0.57457581  0.84613236  0.01160922     0.08610
H2897       H  0.60118170  0.78532225  0.07337328     0.06140
H2898       H  0.63849953  0.91056674  0.08431297     0.05990
C2899       C  0.75821897  0.73176092  0.83422679     0.03020
C2900       C  0.75941334  0.75096889  0.80900322    -0.13130
C2901       C  0.72359508  0.74825976  0.79824634     0.00520
C2902       C  0.68815278  0.72799461  0.81303526    -0.11650
C2903       C  0.68601055  0.70644685  0.83610200     0.03010
C2904       C  0.72078463  0.70969597  0.84747173    -0.11070
H2905       H  0.78712168  0.76617396  0.79743108     0.08610
H2906       H  0.66073867  0.72644191  0.80562544     0.06140
H2907       H  0.71759264  0.69195307  0.86550217     0.05990
C2908       C  0.95786937  0.56613963  0.87946163     0.03020
C2909       C  0.99469268  0.58802986  0.86542537    -0.13130
C2910       C  0.53022780  0.59242585  0.87637991     0.00520
C2911       C  0.52938743  0.57174990  0.89963724    -0.11650
C2912       C  0.99468387  0.55183811  0.91510481     0.03010
C2913       C  0.95819777  0.54826815  0.90490820    -0.11070
H2914       H  0.99688431  0.60511668  0.84724419     0.08610
H2915       H  0.55727269  0.57407999  0.90676784     0.06140
H2916       H  0.93110857  0.53355231  0.91715616     0.05990
O2917       O  0.86606365  0.59014684  0.78834867    -0.80240
O2918       O  0.73516719  0.61429207  0.88718746    -0.81790
O2919       O  0.77633329  0.53077997  0.82796172    -0.78810
O2920       O  0.78998936  0.64479518  0.78875559    -0.77200
O2921       O  0.83869747  0.71152465  0.78643931    -0.78990
O2922       O  0.80261505  0.52212045  0.86759313    -0.79920
O2923       O  0.72729564  0.58153427  0.84681691    -0.81240
O2924       O  0.79928094  0.57158115  0.78591638    -0.81530
Eu2925     Eu  0.79449261  0.60261786  0.82691906     2.39200
O2926       O  0.81035223  0.66581391  0.84276511    -0.89040
O2927       O  0.84447327  0.58857658  0.84278164    -0.92650
C2928       C  0.83059852  0.57206930  0.77659816     1.02040
C2929       C  0.71370637  0.58596546  0.86997606     1.01860
C2930       C  0.78476809  0.50946170  0.84418266     1.01810
C2931       C  0.80753671  0.68027785  0.77710470     0.99660
H2932       H  0.77154298  0.57748523  0.88206617     0.29410
O2933       O  0.79565913  0.60026095  0.87499502    -1.01430
H2934       H  0.85932187  0.65240278  0.79214643     0.29450
O2935       O  0.85905648  0.65196986  0.81182248    -1.03970
O2936       O  0.84726341  0.71049050  0.92976405    -0.81200
O2937       O  0.98018205  0.68857441  0.82846748    -0.80740
O2938       O  0.79873693  0.57953930  0.92968606    -0.79170
O2939       O  0.82197553  0.73508022  0.82847124    -0.82510
O2940       O  0.92276698  0.72385255  0.78968809    -0.80370
O2941       O  0.89533428  0.56459459  0.88739470    -0.79020
O2942       O  0.93126561  0.66285333  0.92949617    -0.80540
O2943       O  0.94651340  0.77517600  0.88749924    -0.82460
O2944       O  0.88421516  0.59552043  0.93105159    -0.79200
O2945       O  0.92140845  0.78293026  0.84706379    -0.81880
O2946       O  0.77785580  0.62582662  0.93084897    -0.77610
O2947       O  0.92852838  0.59032830  0.84715569    -0.77640
O2948       O  0.94028407  0.67524933  0.78656375    -0.77290
O2949       O  0.78585342  0.70685435  0.86733469    -0.80790
O2950       O  0.91467967  0.73137125  0.93132864    -0.80210
O2951       O  0.98834303  0.72447065  0.86740592    -0.78540
Eu2952     Eu  0.80850076  0.66423722  0.89049385     2.39770
Eu2953     Eu  0.90782344  0.63642539  0.82686985     2.39570
Eu2954     Eu  0.84552943  0.58762567  0.89061275     2.38400
Eu2955     Eu  0.87477865  0.71611341  0.82736975     2.39880
Eu2956     Eu  0.92298474  0.70193750  0.89069344     2.39790
O2957       O  0.92238102  0.70042653  0.84294372    -0.92950
O2958       O  0.85905916  0.65124868  0.90521878    -0.91850
C2959       C  0.88298747  0.72964086  0.94109080     1.02220
C2960       C  0.00144924  0.71858939  0.84449060     1.00930
C2961       C  0.77935201  0.59578192  0.94076280     1.00320
C2962       C  0.79176162  0.72583928  0.84433287     1.02340
C2963       C  0.94104626  0.70711106  0.77786514     1.01260
C2964       C  0.92383901  0.57198147  0.87031234     1.00100
C2965       C  0.91480994  0.62708533  0.94070587     1.00160
C2966       C  0.93961225  0.79652323  0.87020803     1.02780
H2967       H  0.93227766  0.63807006  0.88211606     0.30150
O2968       O  0.90956506  0.63935354  0.87498453    -1.05110
H2969       H  0.87297836  0.73859100  0.88253714     0.32200
O2970       O  0.87148792  0.71458132  0.87538716    -1.07680
O2971       O  0.95325245  0.92342501  0.95326242    -0.80240
O2972       O  0.60914026  0.94628038  0.05333086    -0.81790
O2973       O  0.58438435  0.97327866  0.95317372    -0.78810
O2974       O  0.98814507  0.85979629  0.99590203    -0.77200
O2975       O  0.95498158  0.85197355  0.03609314    -0.78990
O2976       O  0.60585423  0.54073243  0.95168076    -0.79920
O2977       O  0.58201127  0.91155942  0.01382550    -0.81240
O2978       O  0.99971318  0.90274930  0.95198385    -0.81530
Eu2979     Eu  0.53775574  0.93317673  0.99223826     2.39200
O2980       O  0.53883584  0.93421927  0.04002401    -0.89040
O2981       O  0.52455066  0.98342623  0.97743455    -0.92650
C2982       C  0.96962230  0.90421587  0.94215147     1.02040
C2983       C  0.60104784  0.91710112  0.03674120     1.01860
C2984       C  0.60404843  0.00907323  0.94193819     1.01810
C2985       C  0.95984313  0.83830211  0.01313712     0.99660
H2986       H  0.61169097  0.99706108  0.00042002     0.29410
O2987       O  0.58776022  0.99572516  0.00761075    -1.01430
H2988       H  0.95088985  0.89589391  0.00064392     0.29450
O2989       O  0.97359361  0.92004083  0.00776389    -1.03970
O2990       O  0.59672487  0.54666147  0.09287105    -0.81200
O2991       O  0.93867124  0.52051308  0.99540835    -0.80740
O2992       O  0.64860587  0.57042193  0.99532842    -0.79170
O2993       O  0.01592660  0.91203962  0.09399178    -0.82510
O2994       O  0.90352801  0.90013107  0.05418140    -0.80370
O2995       O  0.53460080  0.55276205  0.95314015    -0.79020
O2996       O  0.56243565  0.60461359  0.05382245    -0.80540
O2997       O  0.96290121  0.49120096  0.09357455    -0.82460
O2998       O  0.59727820  0.61280273  0.01437837    -0.79200
O2999       O  0.94438652  0.92460146  0.09656370    -0.81880
O3000       O  0.65621511  0.54462936  0.03551378    -0.77610
O3001       O  0.96700532  0.50645114  0.95164859    -0.77640
O3002       O  0.89530905  0.92651086  0.01448431    -0.77290
O3003       O  0.58272580  0.96059149  0.09635039    -0.80790
O3004       O  0.54821168  0.56436335  0.09601700    -0.80210
O3005       O  0.96352537  0.55281230  0.03599930    -0.78540
Eu3006     Eu  0.58923562  0.99836701  0.05557559     2.39770
Eu3007     Eu  0.96095632  0.96992071  0.99231880     2.39570
Eu3008     Eu  0.57524816  0.54711481  0.99213802     2.38400
Eu3009     Eu  0.97555518  0.91886427  0.05581417     2.39880
Eu3010     Eu  0.51003797  0.53228765  0.05562931     2.39790
O3011       O  0.96167885  0.96893790  0.04006469    -0.92950
O3012       O  0.57409687  0.54643166  0.03988693    -0.91850
C3013       C  0.58009097  0.56510176  0.10462835     1.02220
C3014       C  0.94586499  0.54879071  0.01265563     1.00930
C3015       C  0.66995272  0.56326642  0.01248389     1.00320
C3016       C  0.55140075  0.92926122  0.10558734     1.02340
C3017       C  0.88237826  0.90854011  0.03776464     1.01260
C3018       C  0.49881462  0.53638322  0.94184859     1.00100
C3019       C  0.59196644  0.62591853  0.03744075     1.00160
C3020       C  0.94457593  0.95596339  0.10545787     1.02780
H3021       H  0.51164816  0.55692760  0.00048771     0.30150
O3022       O  0.51275926  0.53414520  0.00762696    -1.05110
H3023       H  0.52535823  0.98332556  0.09063635     0.32200
O3024       O  0.52511855  0.98321351  0.07095519    -1.07680
O3025       O  0.93153106  0.71427922  0.42598441    -0.80240
O3026       O  0.77537398  0.68962464  0.32724338    -0.81790
O3027       O  0.89664252  0.77268931  0.38622793    -0.78810
O3028       O  0.79675767  0.65902967  0.42582979    -0.77200
O3029       O  0.77835937  0.59246373  0.42868591    -0.78990
O3030       O  0.93175600  0.78087601  0.34691791    -0.79920
O3031       O  0.79835282  0.72115869  0.36821026    -0.81240
O3032       O  0.88295985  0.73195385  0.42871025    -0.81530
Eu3033     Eu  0.84443537  0.70027457  0.38813851     2.39200
O3034       O  0.79592229  0.63684860  0.37226592    -0.89040
O3035       O  0.90858416  0.71461728  0.37254645    -0.92650
C3036       C  0.91463464  0.73248569  0.43764999     1.02040
C3037       C  0.78120240  0.71720103  0.34466948     1.01860
C3038       C  0.92616723  0.79405777  0.36984220     1.01810
C3039       C  0.77830785  0.62370109  0.43759685     0.99660
H3040       H  0.84686754  0.72479348  0.33312508     0.29410
O3041       O  0.84756037  0.70176243  0.34019438    -1.01430
H3042       H  0.85957540  0.65128288  0.42310510     0.29450
O3043       O  0.85950795  0.65129064  0.40342249    -1.03970
O3044       O  0.79058719  0.59213528  0.28506030    -0.81200
O3045       O  0.93885960  0.61118620  0.38706219    -0.80740
O3046       O  0.87037117  0.72271827  0.28583887    -0.79170
O3047       O  0.73740880  0.56577402  0.38549759    -0.82510
O3048       O  0.85158091  0.58075248  0.42589969    -0.80370
O3049       O  0.98371994  0.73954545  0.32899891    -0.79020
O3050       O  0.91856069  0.64155742  0.28572566    -0.80540
O3051       O  0.82232022  0.52791181  0.32799224    -0.82460
O3052       O  0.94005174  0.70897153  0.28402389    -0.79200
O3053       O  0.78953138  0.51988355  0.36834962    -0.81880
O3054       O  0.80287534  0.67596674  0.28408361    -0.77610
O3055       O  0.99164976  0.71247425  0.36852077    -0.77640
O3056       O  0.91830097  0.62939853  0.42893740    -0.77290
O3057       O  0.72921071  0.59384169  0.34656532    -0.80790
O3058       O  0.83649862  0.57069081  0.28431702    -0.80090
O3059       O  0.91659618  0.57897161  0.34631745    -0.78540
Eu3060     Eu  0.79575330  0.63777082  0.32439631     2.39770
Eu3061     Eu  0.92392498  0.66671116  0.38822841     2.39570
Eu3062     Eu  0.91018829  0.71531774  0.32480153     2.38400
Eu3063     Eu  0.81002699  0.58689086  0.38807911     2.39880
Eu3064     Eu  0.87281816  0.60126550  0.32491275     2.39790
O3065       O  0.87343955  0.60267257  0.37257104    -0.92950
O3066       O  0.85964416  0.65151051  0.31002270    -0.91850
C3067       C  0.80705760  0.57284490  0.27406204     1.02220
C3068       C  0.93266313  0.58294828  0.37022572     1.00930
C3069       C  0.83457720  0.70648609  0.27455102     1.00320
C3070       C  0.71583449  0.57390536  0.36926463     1.02340
C3071       C  0.88693750  0.59774052  0.43774699     1.01260
C3072       C  0.00537392  0.73230120  0.34585855     1.00100
C3073       C  0.93786699  0.67716689  0.27426839     1.00160
C3074       C  0.79395745  0.50636574  0.34517943     1.02780
H3075       H  0.94726956  0.66572953  0.33300603     0.30150
O3076       O  0.92317608  0.66409198  0.34016907    -1.05110
H3077       H  0.78580569  0.56416033  0.33281733     0.32200
O3078       O  0.80852627  0.58818072  0.34004741    -1.07680
O3079       O  0.73020123  0.93935863  0.72060054    -0.80240
O3080       O  0.75233843  0.80756074  0.61974178    -0.81790
O3081       O  0.81647285  0.90500788  0.66115179    -0.78810
O3082       O  0.70294707  0.88868326  0.61968273    -0.77200
O3083       O  0.63546357  0.84194546  0.61796601    -0.78990
O3084       O  0.82426146  0.87949798  0.70140642    -0.79920
O3085       O  0.77344831  0.87492586  0.61784986    -0.81240
O3086       O  0.76654151  0.94734025  0.68192379    -0.81530
Eu3087     Eu  0.74328807  0.88191666  0.65846205     2.39200
O3088       O  0.69244209  0.81809431  0.64385655    -0.89040
O3089       O  0.74191158  0.88133221  0.70621725    -0.92650
C3090       C  0.76045503  0.96053428  0.70473299     1.02040
C3091       C  0.77178176  0.84320887  0.60830635     1.01860
C3092       C  0.83783031  0.89779015  0.67822527     1.01810
C3093       C  0.66717106  0.87228303  0.60835350     0.99660
H3094       H  0.77958645  0.83150653  0.66673057     0.29410
O3095       O  0.75570111  0.83031965  0.67387244    -1.01430
H3096       H  0.67979168  0.89146844  0.66666536     0.29450
O3097       O  0.68070637  0.86864796  0.67391526    -1.03970
O3098       O  0.65534695  0.69451196  0.66123551    -0.81200
O3099       O  0.62973196  0.82619178  0.75958665    -0.80740
O3100       O  0.77617712  0.78074998  0.72079260    -0.79170
O3101       O  0.62064970  0.75750057  0.61945211    -0.82510
O3102       O  0.60628595  0.85482353  0.66113345    -0.80370
O3103       O  0.76530213  0.88167313  0.75946854    -0.79020
O3104       O  0.68493958  0.74753130  0.75984062    -0.80540
O3105       O  0.57125114  0.73412763  0.72095694    -0.82460
O3106       O  0.75161024  0.79632384  0.76272016    -0.79200
O3107       O  0.56328346  0.76167774  0.68172292    -0.81880
O3108       O  0.74722791  0.74425137  0.68217488    -0.77610
O3109       O  0.71663924  0.89917178  0.76250802    -0.77640
O3110       O  0.63257959  0.88863048  0.70110298    -0.77290
O3111       O  0.66707946  0.73677914  0.61820591    -0.80790
O3112       O  0.62176013  0.68647849  0.70129450    -0.80210
O3113       O  0.61159158  0.75969240  0.76269854    -0.78540
Eu3114     Eu  0.70541569  0.76763404  0.65859536     2.39770
Eu3115     Eu  0.67785233  0.86716046  0.72197047     2.39570
Eu3116     Eu  0.75725453  0.83350505  0.72189714     2.38400
Eu3117     Eu  0.62870084  0.80449647  0.65848783     2.39880
Eu3118     Eu  0.64329491  0.75349332  0.72210134     2.39790
O3119       O  0.62963368  0.80372720  0.70627873    -0.92950
O3120       O  0.70663969  0.76933759  0.70634387    -0.91850
C3121       C  0.62649751  0.67309995  0.67809418     1.02220
C3122       C  0.61126346  0.79091465  0.77143924     1.00930
C3123       C  0.76664681  0.75039314  0.70502917     1.00320
C3124       C  0.63688105  0.73810289  0.60834421     1.02340
C3125       C  0.61423070  0.88379790  0.67790791     1.01260
C3126       C  0.74855082  0.89997279  0.77124694     1.00100
C3127       C  0.72030960  0.76474416  0.77165606     1.00160
C3128       C  0.55021387  0.74306066  0.70484983     1.02780
H3129       H  0.69303208  0.81817260  0.75692290     0.30150
O3130       O  0.69288509  0.81803425  0.73723910    -1.05110
H3131       H  0.61850199  0.73099298  0.66683700     0.32200
O3132       O  0.64138121  0.75487933  0.67404490    -1.07680
O3133       O  0.70082016  0.75533410  0.12138270    -0.80240
O3134       O  0.56797516  0.78076918  0.21884000    -0.81790
O3135       O  0.60848240  0.69674369  0.16017683    -0.78810
O3136       O  0.62060453  0.80856196  0.12026783    -0.77200
O3137       O  0.66898072  0.87541992  0.11834511    -0.78990
O3138       O  0.63560737  0.68881453  0.19967527    -0.79920
O3139       O  0.56021111  0.74731548  0.17875751    -0.81240
O3140       O  0.63420748  0.73694934  0.11828391    -0.81530
Eu3141     Eu  0.62735397  0.76856816  0.15873136     2.39200
O3142       O  0.64245559  0.83163044  0.17481935    -0.89040
O3143       O  0.67748732  0.75507112  0.17499823    -0.92650
C3144       C  0.66552349  0.73675261  0.10953219     1.02040
C3145       C  0.54663153  0.75214053  0.20179820     1.01860
C3146       C  0.61751386  0.67589565  0.17637986     1.01810
C3147       C  0.63794332  0.84408274  0.10879210     0.99660
H3148       H  0.60459603  0.74393839  0.21370651     0.29410
O3149       O  0.62876987  0.76679656  0.20679681    -1.01430
H3150       H  0.69203371  0.81832756  0.12413666     0.29450
O3151       O  0.69179745  0.81818985  0.14381763    -1.03970
O3152       O  0.68018216  0.87702877  0.26203580    -0.81200
O3153       O  0.81312497  0.85493799  0.16154612    -0.80740
O3154       O  0.62947048  0.74436256  0.26067432    -0.79170
O3155       O  0.65429170  0.90161746  0.16134045    -0.82510
O3156       O  0.75478153  0.89043919  0.12171501    -0.80370
O3157       O  0.72829968  0.73111492  0.21984743    -0.79020
O3158       O  0.76369497  0.82965100  0.26197698    -0.80540
O3159       O  0.77890866  0.94160007  0.21956741    -0.82460
O3160       O  0.71694778  0.76220204  0.26333104    -0.79200
O3161       O  0.75277926  0.94923197  0.17951183    -0.81880
O3162       O  0.60864304  0.79061529  0.26217778    -0.77610
O3163       O  0.76125280  0.75679166  0.17954741    -0.77640
O3164       O  0.77261330  0.84199287  0.11902424    -0.77290
O3165       O  0.61950874  0.87437799  0.20080718    -0.80790
O3166       O  0.74775816  0.89877886  0.26339409    -0.80210
O3167       O  0.82090745  0.89074678  0.20046205    -0.78540
Eu3168     Eu  0.64121873  0.83043901  0.22269920     2.39770
Eu3169     Eu  0.74081872  0.80314991  0.15938663     2.39570
Eu3170     Eu  0.67833992  0.75409228  0.22279246     2.38400
Eu3171     Eu  0.70666530  0.88219139  0.15933081     2.39880
Eu3172     Eu  0.75531942  0.86839501  0.22302271     2.39790
O3173       O  0.75470851  0.86705632  0.17521689    -0.92950
O3174       O  0.69162441  0.81752527  0.23795137    -0.91850
C3175       C  0.71603034  0.89687619  0.27320660     1.02220
C3176       C  0.83422465  0.88482636  0.17769121     1.00930
C3177       C  0.60937554  0.75992444  0.27160301     1.00320
C3178       C  0.62495327  0.89324786  0.17784366     1.02340
C3179       C  0.77312334  0.87362038  0.11010289     1.01260
C3180       C  0.75677966  0.73855228  0.20271646     1.00100
C3181       C  0.74734346  0.79384883  0.27309746     1.00160
C3182       C  0.77172068  0.96295609  0.20246866     1.02780
H3183       H  0.76509341  0.80468525  0.21460666     0.30150
O3184       O  0.74239692  0.80595713  0.20742404    -1.05110
H3185       H  0.70518724  0.90457814  0.21457992     0.32200
O3186       O  0.70382358  0.88065884  0.20737429    -1.07680
O3187       O  0.51629558  0.54273825  0.59502839    -0.80240
O3188       O  0.64738409  0.52146676  0.49417787    -0.81790
O3189       O  0.59476204  0.49394926  0.59478973    -0.78810
O3190       O  0.61238570  0.60795158  0.55290977    -0.77200
O3191       O  0.58674955  0.61586975  0.51273432    -0.78990
O3192       O  0.54829104  0.92646648  0.59640512    -0.79920
O3193       O  0.65540339  0.55695029  0.53328855    -0.81240
O3194       O  0.58386428  0.56443684  0.59661692    -0.81530
Eu3195     Eu  0.58965209  0.53468064  0.55565025     2.39200
O3196       O  0.58903777  0.53344407  0.50790661    -0.89040
O3197       O  0.52592602  0.98396108  0.57030201    -0.92650
C3198       C  0.55201477  0.56209324  0.60647124     1.02040
C3199       C  0.66854893  0.55130704  0.51033980     1.01860
C3200       C  0.57820564  0.95827953  0.60620523     1.01810
C3201       C  0.60517727  0.62941273  0.53589480     0.99660
H3202       H  0.59928994  0.97096008  0.54750491     0.29410
O3203       O  0.57658744  0.97213408  0.54022512    -1.01430
H3204       H  0.53925902  0.57094438  0.54747203     0.29450
O3205       O  0.53820221  0.54723495  0.54014790    -1.03970
O3206       O  0.53508912  0.92243314  0.45384412    -0.81200
O3207       O  0.90235856  0.94750066  0.55249969    -0.80740
O3208       O  0.56224326  0.89755124  0.55266458    -0.79170
O3209       O  0.59086696  0.55802745  0.45511510    -0.82510
O3210       O  0.98901240  0.56848271  0.49384282    -0.80370
O3211       O  0.96525441  0.91237647  0.59448366    -0.79020
O3212       O  0.94201870  0.86277318  0.49366625    -0.80540
O3213       O  0.95317106  0.97460103  0.45416328    -0.82460
O3214       O  0.96861220  0.85465754  0.53331052    -0.79200
O3215       O  0.00203688  0.54121850  0.45141375    -0.81880
O3216       O  0.59562547  0.92324637  0.51249920    -0.77610
O3217       O  0.94462741  0.95882532  0.59590952    -0.77640
O3218       O  0.95387139  0.54101001  0.53320199    -0.77290
O3219       O  0.60868879  0.50960973  0.45240301    -0.80790
O3220       O  0.96834477  0.90382953  0.45125842    -0.80210
O3221       O  0.89437085  0.91372807  0.51253720    -0.78540
Eu3222     Eu  0.57508130  0.96952456  0.49214352     2.39770
Eu3223     Eu  0.97567772  0.99718416  0.55562106     2.39570
Eu3224     Eu  0.51218269  0.92034130  0.55550248     2.38400
Eu3225     Eu  0.54120387  0.54884778  0.49205108     2.39880
Eu3226     Eu  0.96135391  0.93481560  0.49196429     2.39790
O3227       O  0.97718414  0.99817535  0.50781233    -0.92950
O3228       O  0.51156338  0.92109283  0.50770469    -0.91850
C3229       C  0.49967512  0.90398524  0.44215382     1.02220
C3230       C  0.88089582  0.91869790  0.53560864     1.00930
C3231       C  0.59088664  0.90497570  0.53570063     1.00320
C3232       C  0.60983930  0.54167199  0.44369390     1.02340
C3233       C  0.95938856  0.55980030  0.51014845     1.01260
C3234       C  0.94589479  0.92857165  0.60566041     1.00100
C3235       C  0.95036643  0.84162389  0.51010579     1.00160
C3236       C  0.97022235  0.50994750  0.44249165     1.02780
H3237       H  0.93862358  0.91034622  0.54721291     0.30150
O3238       O  0.96258720  0.93313591  0.54000384    -1.05110
H3239       H  0.52607247  0.48486450  0.45704264     0.32200
O3240       O  0.52588512  0.98456741  0.47672851    -1.07680
C3241       C  0.64616795  0.67687101  0.84622121    -0.00260
C3242       C  0.63685319  0.67938329  0.87331375    -0.12140
C3243       C  0.59869450  0.65278301  0.88332680     0.01970
C3244       C  0.56955731  0.62277235  0.86594367    -0.00350
C3245       C  0.57876666  0.62046318  0.83878465    -0.12080
C3246       C  0.61692883  0.64714112  0.82875784     0.01860
H3247       H  0.65924107  0.70257090  0.88647836     0.14840
H3248       H  0.55642036  0.59720505  0.82564146     0.14840
C3249       C  0.62547597  0.64278323  0.80068926     0.36490
C3250       C  0.59018713  0.65728364  0.91138611     0.36400
N3251       N  0.63220004  0.63952410  0.77815665    -0.43850
N3252       N  0.58352989  0.66066080  0.93391349    -0.43850
C3253       C  0.55765675  0.77405178  0.03008390    -0.00260
C3254       C  0.51724142  0.75965667  0.03690490    -0.12140
C3255       C  0.98804970  0.71997054  0.03144443     0.01970
C3256       C  0.49950638  0.69445615  0.01899426    -0.00350
C3257       C  0.53997129  0.70873405  0.01230211    -0.12080
C3258       C  0.56923864  0.74846802  0.01785745     0.01860
H3259       H  0.50876547  0.77924748  0.04715775     0.14840
H3260       H  0.54835930  0.68916384  0.00193143     0.14840
C3261       C  0.61062849  0.76260216  0.01049916     0.36490
C3262       C  0.94668747  0.70598871  0.03878976     0.36400
N3263       N  0.64374553  0.77392467  0.00446098    -0.43850
N3264       N  0.91361602  0.69488176  0.04482042    -0.43850
C3265       C  0.90187172  0.79062855  0.19623372    -0.00260
C3266       C  0.91872206  0.83028670  0.20568794    -0.12140
C3267       C  0.95838852  0.85879516  0.19940039     0.01970
C3268       C  0.98120007  0.84719238  0.18363098    -0.00350
C3269       C  0.96425912  0.80759709  0.17405583    -0.12080
C3270       C  0.92460453  0.77912950  0.18029749     0.01860
H3271       H  0.90115903  0.83853530  0.21859824     0.14840
H3272       H  0.98186388  0.79928411  0.16123863     0.14840
C3273       C  0.90779954  0.73848450  0.17029488     0.36490
C3274       C  0.97524256  0.89942840  0.20943140     0.36400
N3275       N  0.89421854  0.70594444  0.16219755    -0.43850
N3276       N  0.98883996  0.93195555  0.21755908    -0.43850
C3277       C  0.81419591  0.51038296  0.51300732    -0.00260
C3278       C  0.80201964  0.51760525  0.53803650    -0.12140
C3279       C  0.76323962  0.99172709  0.54739169     0.01970
C3280       C  0.73660741  0.95796956  0.53150682    -0.00350
C3281       C  0.74868104  0.95093526  0.50636079    -0.12080
C3282       C  0.78744416  0.97690793  0.49696251     0.01860
H3283       H  0.82256426  0.54380988  0.54994146     0.14840
H3284       H  0.72819398  0.92465923  0.49449603     0.14840
C3285       C  0.79929212  0.96843382  0.47100809     0.36490
C3286       C  0.75139639  0.00037967  0.57328115     0.36400
N3287       N  0.80877891  0.96183535  0.45017395    -0.43850
N3288       N  0.74194346  0.00709177  0.59408499    -0.43850
C3289       C  0.72353205  0.60577859  0.70166054    -0.00260
C3290       C  0.72140157  0.59893639  0.67362912    -0.12140
C3291       C  0.69360401  0.56156991  0.66305436     0.01970
C3292       C  0.66700726  0.53035589  0.68092724    -0.00350
C3293       C  0.66955203  0.53704851  0.70898657    -0.12080
C3294       C  0.69740354  0.57435226  0.71956643     0.01860
H3295       H  0.74170662  0.62285649  0.65998486     0.14840
H3296       H  0.64905707  0.51327114  0.72264492     0.14840
C3297       C  0.69739996  0.57940185  0.74878045     0.36490
C3298       C  0.69354875  0.55641530  0.63385030     0.36400
N3299       N  0.69756647  0.58294871  0.77221563    -0.43850
N3300       N  0.69320930  0.55274765  0.61041928    -0.43850
C3301       C  0.82801126  0.86038880  0.35270587    -0.00260
C3302       C  0.86813130  0.87593637  0.34455503    -0.12140
C3303       C  0.89707178  0.91537726  0.35081372     0.01970
C3304       C  0.88548131  0.93921725  0.36535343    -0.00350
C3305       C  0.84542320  0.92360999  0.37365431    -0.12080
C3306       C  0.81645808  0.88419216  0.36732978     0.01860
H3307       H  0.87643967  0.85756114  0.33258560     0.14840
H3308       H  0.83709483  0.94205763  0.38552178     0.14840
C3309       C  0.77532861  0.86867989  0.37598751     0.36490
C3310       C  0.93811312  0.93103698  0.34187308     0.36400
N3311       N  0.74239507  0.85614665  0.38301947    -0.43850
N3312       N  0.97096490  0.94371302  0.33460231    -0.43850
C3313       C  0.93112584  0.52986032  0.17974758    -0.00260
C3314       C  0.94627461  0.54106578  0.20611468    -0.12140
C3315       C  0.95754843  0.57930439  0.21558787     0.01970
C3316       C  0.95295086  0.60644586  0.19844462    -0.00350
C3317       C  0.93810739  0.59534355  0.17198603    -0.12080
C3318       C  0.92696959  0.55713041  0.16247820     0.01860
H3319       H  0.94985971  0.52013554  0.21907381     0.14840
H3320       H  0.93438531  0.61620825  0.15905172     0.14840
C3321       C  0.91067867  0.54638287  0.13517301     0.36490
C3322       C  0.97413338  0.59007808  0.24281955     0.36400
N3323       N  0.89789135  0.53783690  0.11325937    -0.43850
N3324       N  0.98715125  0.59862882  0.26467699    -0.43850
C3325       C  0.61718038  0.61988307  0.36253314    -0.00260
C3326       C  0.58122898  0.61753047  0.37147069    -0.12140
C3327       C  0.57471972  0.64984524  0.36854821     0.01970
C3328       C  0.60241493  0.68430858  0.35381040    -0.00350
C3329       C  0.63849318  0.68680995  0.34511425    -0.12080
C3330       C  0.64454555  0.65417035  0.34745816     0.01860
H3331       H  0.55883146  0.59102711  0.38231868     0.14840
H3332       H  0.66073357  0.71324746  0.33411009     0.14840
C3333       C  0.67459744  0.65436430  0.33000955     0.36490
C3334       C  0.54240624  0.64851209  0.38403035     0.36400
N3335       N  0.69637620  0.65308112  0.31439466    -0.43850
N3336       N  0.51842933  0.64895048  0.39793808    -0.43850
C3337       C  0.76616636  0.51611648  0.02080857    -0.00260
C3338       C  0.74158432  0.97598104  0.01264491    -0.12140
C3339       C  0.75246572  0.94741284  0.01880895     0.01970
C3340       C  0.78839179  0.95934170  0.03320804    -0.00350
C3341       C  0.81283482  0.99940559  0.04156605    -0.12080
C3342       C  0.80192329  0.52798440  0.03540191     0.01860
H3343       H  0.71455334  0.96735573  0.00074305     0.14840
H3344       H  0.83988072  0.50800873  0.05344320     0.14840
C3345       C  0.82739561  0.56901946  0.04432778     0.36490
C3346       C  0.72678024  0.90630413  0.01003992     0.36400
N3347       N  0.84764729  0.60184966  0.05165364    -0.43850
N3348       N  0.70631126  0.87339624  0.00291825    -0.43850
C3349       C  0.76440083  0.69658692  0.51262976    -0.00260
C3350       C  0.78136456  0.70787303  0.53855565    -0.12140
C3351       C  0.79324272  0.74612216  0.54829307     0.01970
C3352       C  0.78734642  0.77310847  0.53193534    -0.00350
C3353       C  0.77067870  0.76193721  0.50590751    -0.12080
C3354       C  0.75903277  0.72375165  0.49609023     0.01860
H3355       H  0.78598670  0.68705520  0.55090163     0.14840
H3356       H  0.76601003  0.78273259  0.49357476     0.14840
C3357       C  0.74113922  0.71293393  0.46921441     0.36490
C3358       C  0.81194954  0.75719622  0.57490645     0.36400
N3359       N  0.72706637  0.70430803  0.44763291    -0.43850
N3360       N  0.82682546  0.76606501  0.59623933    -0.43850
C3361       C  0.93255502  0.84855659  0.68591783    -0.00260
C3362       C  0.97086258  0.86248491  0.69708040    -0.12140
C3363       C  0.98263069  0.83521975  0.70515080     0.01970
C3364       C  0.95597900  0.79367391  0.70133643    -0.00350
C3365       C  0.91754139  0.77974302  0.69040795    -0.12080
C3366       C  0.90566091  0.80697011  0.68253927     0.01860
H3367       H  0.99154823  0.89459126  0.69922219     0.14840
H3368       H  0.89689129  0.74763920  0.68817740     0.14840
C3369       C  0.86659166  0.79181151  0.66995467     0.36490
C3370       C  0.52121977  0.85026004  0.71843567     0.36400
N3371       N  0.83544505  0.77984554  0.65969451    -0.43850
N3372       N  0.55185913  0.86215988  0.72942569    -0.43850
C3373       C  0.59791820  0.86370072  0.84709591    -0.00260
C3374       C  0.59127529  0.88914670  0.82991234    -0.12140
C3375       C  0.60179592  0.92773741  0.83825812     0.01970
C3376       C  0.61898848  0.94081433  0.86416120    -0.00350
C3377       C  0.62605290  0.91550909  0.88119461    -0.12080
C3378       C  0.61541105  0.87690808  0.87290182     0.01860
H3379       H  0.57770296  0.87865865  0.80996796     0.14840
H3380       H  0.63958625  0.92594081  0.90115632     0.14840
C3381       C  0.62332065  0.85181721  0.89086765     0.36490
C3382       C  0.59370437  0.95277898  0.82038107     0.36400
N3383       N  0.62957837  0.83170248  0.90530521    -0.43850
N3384       N  0.58729573  0.97286578  0.80602200    -0.43850
C3385       C  0.67229826  0.58451561  0.17830878    -0.00260
C3386       C  0.70033498  0.58493138  0.15971704    -0.12140
C3387       C  0.72816844  0.57397783  0.16794211     0.01970
C3388       C  0.72825717  0.56299185  0.19524149    -0.00350
C3389       C  0.70001112  0.56236454  0.21372569    -0.12080
C3390       C  0.67239462  0.57345915  0.20558197     0.01860
H3391       H  0.70030168  0.59371950  0.13866518     0.14840
H3392       H  0.69961205  0.55316464  0.23472910     0.14840
C3393       C  0.64414268  0.57239343  0.22540388     0.36490
C3394       C  0.75635005  0.57470993  0.14822450     0.36400
N3395       N  0.62181386  0.57188192  0.24139051    -0.43850
N3396       N  0.77866503  0.57498746  0.13232381    -0.43850
C3397       C  0.57055384  0.89186826  0.36456323    -0.00260
C3398       C  0.58130701  0.86208981  0.36643831    -0.12140
C3399       C  0.62044424  0.87129461  0.36058512     0.01970
C3400       C  0.64909689  0.91075087  0.35270591    -0.00350
C3401       C  0.63844562  0.94061467  0.35101470    -0.12080
C3402       C  0.59929083  0.93141569  0.35687088     0.01860
H3403       H  0.55936830  0.83195315  0.37322369     0.14840
H3404       H  0.66035980  0.97069918  0.34412455     0.14840
C3405       C  0.58888545  0.96252821  0.35434609     0.36490
C3406       C  0.63084596  0.84017040  0.36298122     0.36400
N3407       N  0.58028576  0.98725048  0.35227227    -0.43850
N3408       N  0.63950538  0.81548224  0.36494900    -0.43850
C3409       C  0.73710828  0.72071442  0.03409494    -0.00260
C3410       C  0.76222415  0.75828012  0.02217918    -0.12140
C3411       C  0.80150669  0.76940946  0.01510247     0.01970
C3412       C  0.81581751  0.74271094  0.02038252    -0.00350
C3413       C  0.79079117  0.70524302  0.03246744    -0.12080
C3414       C  0.75153722  0.69419060  0.03965789     0.01860
H3415       H  0.75110195  0.77882677  0.01853630     0.14840
H3416       H  0.80185343  0.68462227  0.03598262     0.14840
C3417       C  0.72717322  0.65642081  0.05373248     0.36490
C3418       C  0.82598738  0.80741967  0.00131276     0.36400
N3419       N  0.70769983  0.62642660  0.06528653    -0.43850
N3420       N  0.84560049  0.83765432  0.99005465    -0.43850
C3421       C  0.49947030  0.74598679  0.51510803    -0.00260
C3422       C  0.54031535  0.77586842  0.51417978    -0.12140
C3423       C  0.57001909  0.76645375  0.52031213     0.01970
C3424       C  0.55863361  0.72662413  0.52745190    -0.00350
C3425       C  0.51781082  0.69670835  0.52819312    -0.12080
C3426       C  0.98811683  0.70612364  0.52214024     0.01860
H3427       H  0.54895986  0.80627855  0.50792989     0.14840
H3428       H  0.50913900  0.66633828  0.53457333     0.14840
C3429       C  0.94627769  0.67476364  0.52373816     0.36490
C3430       C  0.61187077  0.79783235  0.51903569     0.36400
N3431       N  0.91275733  0.64970681  0.52506177    -0.43850
N3432       N  0.64541530  0.82288816  0.51796295    -0.43850
C3433       C  0.89111797  0.89157358  0.86149389    -0.00260
C3434       C  0.90495457  0.92955112  0.84992165    -0.12140
C3435       C  0.87767177  0.94164152  0.84254901     0.01970
C3436       C  0.83621283  0.91560333  0.84724353    -0.00350
C3437       C  0.82235460  0.87746195  0.85858926    -0.12080
C3438       C  0.84960910  0.86534500  0.86597774     0.01860
H3439       H  0.93704062  0.94987575  0.84713753     0.14840
H3440       H  0.79029335  0.85726455  0.86158439     0.14840
C3441       C  0.83468762  0.82693604  0.87944898     0.36490
C3442       C  0.89260904  0.98015016  0.82936485     0.36400
N3443       N  0.82296242  0.79641190  0.89051349    -0.43850
N3444       N  0.90446545  0.51087508  0.81860952    -0.43850
C3445       C  0.90541717  0.56257485  0.70151468    -0.00260
C3446       C  0.91174781  0.56524775  0.67338434    -0.12140
C3447       C  0.94862285  0.57341077  0.66284116     0.01970
C3448       C  0.97986738  0.57847589  0.68084192    -0.00350
C3449       C  0.97369276  0.57630134  0.70894917    -0.12080
C3450       C  0.93707316  0.56873122  0.71948994     0.01860
H3451       H  0.88780306  0.56116628  0.65960004     0.14840
H3452       H  0.99752164  0.58014247  0.72276439     0.14840
C3453       C  0.93335208  0.56721740  0.74881689     0.36490
C3454       C  0.95332210  0.57700465  0.63354134     0.36400
N3455       N  0.93123621  0.56721380  0.77233439    -0.43850
N3456       N  0.95665012  0.07925734  0.61005411    -0.43850
loop_ 
_geom_bond_atom_site_label_1 
_geom_bond_atom_site_label_2 
_geom_bond_distance 
_geom_bond_site_symmetry_2 
_ccdc_geom_bond_type 
C1          C498   1.501       .  S
C1          C866   1.407       .  A
C1          C870   1.426       .  A
C2            C3   1.397       .  A
C2          C865   1.407       .  A
C2          H871   1.083       .  S
C3          C853   1.469       .  S
C3            C4   1.381       .  A
C4            C5   1.386       .  A
C4            H8   1.085       .  S
C5          C336   1.480       .  S
C5            C6   1.424       .  A
C6          C865   1.426       .  A
C6            H9   1.082       .  S
H7          C866   1.083       .  S
C10         C529   1.503       .  S
C10          C11   1.407       .  A
C10          C15   1.426       .  A
C11          C12   1.397       .  A
C11          H16   1.083       .  S
C12        C2584   1.468   1_455  S
C12          C13   1.381       .  A
C13          C14   1.385       .  A
C13          H17   1.085   1_455  S
C14         C606   1.481       .  S
C14          C15   1.428       .  A
C15          H18   1.083       .  S
C19        C1202   1.501       .  S
C19          C20   1.408       .  A
C19          C24   1.428       .  A
C20          C21   1.390       .  A
C20          H25   1.084       .  S
C21         C844   1.455       .  S
C21          C22   1.380       .  A
C22          C23   1.390       .  A
C22          H26   1.085       .  S
C23         C534   1.487       .  S
C23          C24   1.428       .  A
C24          H27   1.082       .  S
C28         C374   1.499       .  S
C28          C29   1.408       .  A
C28          C33   1.423       .  A
C29          C30   1.391       .  A
C29          H34   1.084       .  S
C30         C841   1.452       .  S
C30          C31   1.381       .  A
C31          C32   1.386       .  A
C31          H35   1.085       .  S
C32         C390   1.479       .  S
C32          C33   1.426       .  A
C33          H36   1.083       .  S
C37         C643   1.499       .  S
C37          C38   1.408       .  A
C37          C42   1.425       .  A
C38          C39   1.391       .  A
C38        H1771   1.084       .  S
C39        C2557   1.459       .  S
C39          C40   1.382       .  A
C40          C41   1.390       .  A
C40          H44   1.085       .  S
C41         C444   1.483       .  S
C41          C42   1.425       .  A
C42          H45   1.083       .  S
H43        C1766   1.084       .  S
C46         C609   1.506       .  S
C46          C47   1.409       .  A
C46          C51   1.427       .  A
C47          C48   1.394       .  A
C47          H52   1.084       .  S
C48         C832   1.458       .  S
C48          C49   1.384       .  A
C49          C50   1.387       .  A
C49          H53   1.085       .  S
C50         C532   1.487       .  S
C50          C51   1.429       .  A
C51          H54   1.083       .  S
C55         C393   1.501       .  S
C55          C56   1.408       .  A
C55          C60   1.425   1_554  A
C56          C57   1.391       .  A
C56          H61   1.084       .  S
C57         C820   1.454       .  S
C57          C58   1.382   1_554  A
C58          C59   1.389       .  A
C58          H62   1.085       .  S
C59         C367   1.482       .  S
C59          C60   1.426       .  A
C60          H63   1.083       .  S
C64         C427   1.500       .  S
C64          C65   1.428       .  A
C64          C69   1.407       .  A
C65          C66   1.428       .  A
C65          H70   1.083       .  S
C66         C552   1.486       .  S
C66          C67   1.391       .  A
C67          C68   1.380       .  A
C67          H71   1.085       .  S
C68         C817   1.455       .  S
C68          C69   1.389       .  A
C69          H72   1.084       .  S
C73         C446   1.500       .  S
C73          C74   1.407       .  A
C73          C78   1.426       .  A
C74        C1803   1.391       .  A
C74          H79   1.084       .  S
C75         C805   1.459       .  S
C75          C76   1.383       .  A
C75        C1802   1.391   1_455  A
C76        C1805   1.390   1_455  A
C76          H80   1.085       .  S
C77        C2365   1.484       .  S
C77          C78   1.426       .  A
C77        C1804   1.390       .  A
C78          H81   1.083       .  S
C82        C1346   1.504       .  S
C82          C83   1.408       .  A
C82          C87   1.427       .  A
C83          C84   1.392       .  A
C83          H88   1.084       .  S
C84         C808   1.458       .  S
C84          C85   1.384       .  A
C85          C86   1.388       .  A
C85          H89   1.085       .  S
C86         C583   1.486       .  S
C86          C87   1.429       .  A
C87          H90   1.083       .  S
C91         C554   1.497       .  S
C91          C92   1.407       .  A
C91          C96   1.426       .  A
C92          C93   1.390       .  A
C92          H97   1.083       .  S
C93         C793   1.460       .  S
C93          C94   1.380       .  A
C94          C95   1.387       .  A
C94          H98   1.085       .  S
C95         C421   1.481       .  S
C95          C96   1.426       .  A
C96          H99   1.083       .  S
C100        C590   1.502       .  S
C100        C965   1.410       .  A
C100        C969   1.426       .  A
C101        C102   1.395       .  A
C101        C964   1.410       .  A
C101        H970   1.083       .  S
C102        C796   1.462       .  S
C102        C103   1.383       .  A
C103        C104   1.382       .  A
C103        H107   1.086       .  S
C104        C475   1.479       .  S
C104        C105   1.426       .  A
C105        C964   1.426       .  A
C105        H108   1.083       .  S
H106        C965   1.083       .  S
C109       C2096   1.501       .  S
C109        C110   1.407       .  A
C109        C114   1.429       .  A
C110        C111   1.390       .  A
C110        H115   1.084       .  S
C111        C781   1.456       .  S
C111        C112   1.380       .  A
C112        C113   1.388       .  A
C112        H116   1.085       .  S
C113        C530   1.485       .  S
C113        C114   1.427       .  A
C114        H117   1.082       .  S
C118        C337   1.503       .  S
C118        C119   1.408       .  A
C118        C123   1.427       .  A
C119        C984   1.393   1_545  A
C119        H124   1.084       .  S
C120        C784   1.457       .  S
C120        C121   1.382       .  A
C120        C983   1.393       .  A
C121        C986   1.385       .  A
C121        H125   1.085       .  S
C122       C1256   1.483       .  S
C122        C123   1.428       .  A
C122        C985   1.385   1_545  A
C123        H126   1.083       .  S
C127        C500   1.502       .  S
C127        C128   1.407       .  A
C127        C132   1.427       .  A
C128        C129   1.391       .  A
C128        H133   1.084       .  S
C129        C769   1.453       .  S
C129        C130   1.382       .  A
C130        C131   1.388       .  A
C130        H134   1.085       .  S
C131        C642   1.485       .  S
C131        C132   1.429       .  A
C132        H135   1.083       .  S
C136        C536   1.500       .  S
C136        C137   1.407   1_455  A
C136       C1869   1.428   1_455  A
C137       C1866   1.389       .  A
C137        H142   1.084   1_655  S
C138        C772   1.454       .  S
C138        C139   1.380       .  A
C138       C1865   1.389       .  A
C139        C140   1.390       .  A
C139        H143   1.085       .  S
C140        C371   1.485       .  S
C140        C141   1.428       .  A
C141       C1864   1.428       .  A
C141       H1872   1.083       .  S
H144       C1869   1.083   1_455  S
C145        C607   1.499       .  S
C145        C146   1.407       .  A
C145        C150   1.428       .  A
C146        C147   1.390       .  A
C146        H151   1.084       .  S
C147        C757   1.455       .  S
C147        C148   1.378       .  A
C148        C149   1.387       .  A
C148        H152   1.085       .  S
C149        C447   1.481       .  S
C149        C150   1.426       .  A
C150        H153   1.082       .  S
C154        C638   1.502       .  S
C154        C155   1.408       .  A
C154        C159   1.428       .  A
C155        C156   1.392       .  A
C155        H160   1.084       .  S
C156        C760   1.456       .  S
C156        C157   1.380       .  A
C157        C158   1.385       .  A
C157        H161   1.085       .  S
C158        C499   1.483       .  S
C158        C159   1.428       .  A
C159        H162   1.083       .  S
C163        C423   1.502       .  S
C163        C164   1.408       .  A
C163        C168   1.426   1_554  A
C164        C165   1.391       .  A
C164        H169   1.084       .  S
C165        C745   1.453       .  S
C165        C166   1.382   1_554  A
C166        C167   1.388       .  A
C166        H170   1.085       .  S
C167        C369   1.484       .  S
C167        C168   1.428       .  A
C168        H171   1.083       .  S
C172        C425   1.498       .  S
C172        C173   1.408       .  A
C172        C177   1.426       .  A
C173        C174   1.388       .  A
C173        H178   1.084       .  S
C174        C748   1.452       .  S
C174        C175   1.380       .  A
C175        C176   1.390       .  A
C175        H179   1.085       .  S
C176        C587   1.482       .  S
C176        C177   1.426       .  A
C177        H180   1.083       .  S
C181        C478   1.506       .  S
C181        C182   1.408       .  A
C181        C186   1.425       .  A
C182        C183   1.406       .  A
C182        H187   1.075       .  S
C183        C733   1.495       .  S
C183        C184   1.397       .  A
C184        C185   1.387       .  A
C184        H188   1.080       .  S
C185        C640   1.491       .  S
C185        C186   1.422       .  A
C186        H189   1.082       .  S
C190       C2208   1.504       .  S
C190        C191   1.411       .  A
C190        C195   1.422       .  A
C191        C192   1.407       .  A
C191        H196   1.077       .  S
C192        C736   1.492       .  S
C192        C193   1.396       .  A
C193        C194   1.383       .  A
C193        H197   1.081       .  S
C194        C585   1.485       .  S
C194        C195   1.420       .  A
C195        H198   1.083       .  S
C199        C553   1.500       .  S
C199       C1928   1.409   1_455  A
C199       C1932   1.426   1_455  A
C200        C201   1.393       .  A
C200       C1927   1.409       .  A
C200       H1933   1.084       .  S
C201        C724   1.458       .  S
C201        C202   1.380       .  A
C202        C203   1.385       .  A
C202        H206   1.085       .  S
C203        C481   1.480       .  S
C203        C204   1.426       .  A
C204       C1927   1.426       .  A
C204       H1935   1.083       .  S
H205       C1928   1.084   1_455  S
H207       C1932   1.083   1_455  S
C208        C584   1.497       .  S
C208        C209   1.408       .  A
C208        C213   1.426       .  A
C209        C210   1.391       .  A
C209        H214   1.084       .  S
C210       C1585   1.456       .  S
C210        C211   1.378       .  A
C211        C212   1.387       .  A
C211       H1079   1.086       .  S
C212        C428   1.479       .  S
C212        C213   1.424       .  A
C213        H216   1.083       .  S
H215       C1075   1.086   1_545  S
C217        C445   1.501       .  S
C217        C218   1.406       .  A
C217        C222   1.427       .  A
C218        C219   1.389       .  A
C218        H223   1.084       .  S
C219        C709   1.449       .  S
C219        C220   1.382       .  A
C220        C221   1.387       .  A
C220        H224   1.085       .  S
C221        C589   1.484       .  S
C221        C222   1.426       .  A
C222        H225   1.081       .  S
C226        C476   1.497       .  S
C226        C227   1.404       .  A
C226        C231   1.428       .  A
C227       C1092   1.387   1_545  A
C227        H232   1.084       .  S
C228        C712   1.449       .  S
C228        C229   1.381       .  A
C228       C1091   1.387       .  A
C229       C1094   1.390       .  A
C229        H233   1.085       .  S
C230        C644   1.484       .  S
C230        C231   1.424       .  A
C230       C1093   1.390   1_545  A
C231        H234   1.081       .  S
C235        C531   1.500       .  S
C235        C236   1.408       .  A
C235        C240   1.425       .  A
C236        C237   1.396       .  A
C236        H241   1.083       .  S
C237        C697   1.465       .  S
C237        C238   1.378       .  A
C238        C239   1.384       .  A
C238        H242   1.085       .  S
C239        C339   1.476       .  S
C239        C240   1.423       .  A
C240        H243   1.082       .  S
C244        C533   1.501       .  S
C244        C245   1.424       .  A
C244        C249   1.409       .  A
C245        C246   1.426       .  A
C245        H250   1.083       .  S
C246        C608   1.478       .  S
C246        C247   1.384       .  A
C247        C248   1.379       .  A
C247       H1115   1.085       .  S
C248       C1564   1.466       .  S
C248        C249   1.397       .  A
C249        H252   1.083       .  S
H251       C1111   1.085   1_545  S
C253        C641   1.499       .  S
C253        C254   1.408       .  A
C253        C258   1.428       .  A
C254        C255   1.390       .  A
C254        H259   1.084       .  S
C255        C685   1.453       .  S
C255        C256   1.377       .  A
C256        C257   1.386       .  A
C256        H260   1.086       .  S
C257        C479   1.481       .  S
C257        C258   1.426       .  A
C258        H261   1.083       .  S
C262        C639   1.502       .  S
C262        C263   1.409       .  A
C262        C267   1.427       .  A
C263        C264   1.391       .  A
C263        H268   1.084       .  S
C264        C688   1.454       .  S
C264        C265   1.379       .  A
C265        C266   1.384       .  A
C265        H269   1.085       .  S
C266        C501   1.482       .  S
C266        C267   1.428       .  A
C267        H270   1.083       .  S
C271        C588   1.502       .  S
C271        C272   1.408       .  A
C271        C276   1.427       .  A
C272        C273   1.389       .  A
C272        H277   1.084       .  S
C273        C673   1.451       .  S
C273        C274   1.381       .  A
C274        C275   1.387       .  A
C274        H278   1.085       .  S
C275        C477   1.485       .  S
C275        C276   1.429       .  A
C276        H279   1.083       .  S
C280        C586   1.497       .  S
C280        C281   1.407       .  A
C280        C285   1.425       .  A
C281        C282   1.389       .  A
C281        H286   1.084       .  S
C282       C2404   1.451   1_455  S
C282        C283   1.380       .  A
C283        C284   1.389       .  A
C283        H287   1.086   1_455  S
C284        C424   1.481       .  S
C284        C285   1.424       .  A
C285        H288   1.083       .  S
C289        C422   1.502       .  S
C289        C290   1.409       .  A
C289        C294   1.426   1_554  A
C290        C291   1.391       .  A
C290        H295   1.084       .  S
C291       C2392   1.455       .  S
C291        C292   1.382   1_554  A
C292        C293   1.388       .  A
C292        H296   1.085       .  S
C293        C373   1.486       .  S
C293        C294   1.428       .  A
C294        H297   1.083       .  S
C298        C391   1.499       .  S
C298        C299   1.408       .  A
C298        C303   1.425       .  A
C299        C300   1.391       .  A
C299        H304   1.084       .  S
C300        C661   1.456       .  S
C300        C301   1.382       .  A
C301        C302   1.390       .  A
C301        H305   1.086       .  S
C302        C555   1.482       .  S
C302        C303   1.424       .  A
C303        H306   1.083       .  S
C307        C370   1.499       .  S
C307        C308   1.427       .  A
C307        C312   1.408       .  A
C308        C309   1.426       .  A
C308        H313   1.082       .  S
C309        C535   1.480       .  S
C309        C310   1.386       .  A
C310        C311   1.378       .  A
C310        H314   1.086       .  S
C311        C649   1.459       .  S
C311        C312   1.392       .  A
C312        H315   1.084       .  S
C316        C372   1.501       .  S
C316        C317   1.409       .  A
C316        C321   1.425       .  A
C317       C2046   1.394       .  A
C317        H322   1.084       .  S
C318        C652   1.459       .  S
C318        C319   1.379       .  A
C318       C2045   1.394   1_455  A
C319       C2048   1.383   1_455  A
C319        H323   1.085       .  S
C320       C2154   1.478       .  S
C320        C321   1.426       .  A
C320       C2047   1.383       .  A
C321        H324   1.083       .  S
O325        C336   1.309       .  A
O325       Eu361   2.536       .  S
O326        C337   1.294       .  A
O326       Eu360   2.488       .  S
O327        C338   1.293       .  A
O327       Eu333   2.485       .  S
O328        C339   1.308       .  A
O328       Eu333   2.534       .  S
O329        C339   1.279       .  A
O329       Eu363   2.391       .  S
O330        C338   1.299       .  A
O330       Eu362   2.481       .  S
O331        C337   1.299       .  A
O331       Eu333   2.485       .  S
O332        C336   1.280       .  A
O332       Eu333   2.397       .  S
Eu333       O343   2.357       .  S
Eu333       O335   2.369       .  S
Eu333       O334   2.323       .  S
Eu333       O341   2.360       .  S
O334       Eu363   2.369       .  S
O334       Eu360   2.342       .  S
O335       Eu361   2.325       .  S
O335       Eu362   2.346       .  S
C338        C883   1.501   1_545  S
H340        O341   0.963       .  S
O341       Eu362   2.328       .  S
O341       Eu360   2.379       .  S
H342        O343   0.965       .  S
O343       Eu361   2.351       .  S
O343       Eu363   2.353       .  S
O344        C367   1.308       .  A
O344       Eu360   2.534       .  S
O345        C368   1.291       .  A
O345       Eu361   2.476       .  S
O346        C369   1.310       .  A
O346       Eu362   2.542       .  S
O347        C370   1.292       .  A
O347       Eu363   2.479       .  S
O348        C371   1.306       .  A
O348       Eu363   2.525       .  S
O349        C372   1.294       .  A
O349       Eu362   2.487       .  S
O350        C373   1.309       .  A
O350       Eu364   2.537       .  S
O351        C374   1.294       .  A
O351       Eu364   2.491       .  S
O352        C373   1.280       .  A
O352       Eu362   2.400       .  S
O353        C374   1.296       .  A
O353       Eu363   2.471       .  S
O354        C369   1.279       .  A
O354       Eu360   2.393       .  S
O355        C372   1.299       .  A
O355       Eu361   2.483       .  S
O356        C371   1.282       .  A
O356       Eu361   2.410       .  S
O357        C370   1.298       .  A
O357       Eu360   2.480       .  S
O358        C367   1.280       .  A
O358       Eu364   2.396       .  S
O359        C368   1.300       .  A
O359       Eu364   2.486       .  S
Eu360       O378   2.330       .  S
Eu360       O366   2.347       .  S
Eu361       O365   2.369       .  S
Eu361       O376   2.362       .  S
Eu362       O376   2.380       .  S
Eu362       O366   2.345       .  S
Eu363       O365   2.321       .  S
Eu363       O378   2.358       .  S
Eu364       O365   2.342       .  S
Eu364       O376   2.326       .  S
Eu364       O378   2.381       .  S
Eu364       O366   2.348       .  S
C368       C1837   1.501       .  S
H375        O376   0.963       .  S
H377        O378   0.963       .  S
O379        C390   1.309       .  A
O379       Eu415   2.538       .  S
O380        C391   1.293       .  A
O380       Eu414   2.481       .  S
O381        C392   1.311       .  A
O381       Eu387   2.545       .  S
O382        C393   1.294   1_556  A
O382      Eu2115   2.490       .  S
O383        C393   1.298       .  A
O383       Eu417   2.478       .  S
O384       C1256   1.278       .  A
O384       Eu416   2.386       .  S
O385        C391   1.297       .  A
O385       Eu387   2.471   1_554  S
O386        C390   1.278       .  A
O386      Eu2115   2.381       .  S
Eu387      O2110   2.490   1_455  S
Eu387      O2114   2.381   1_455  S
Eu387       O389   2.344       .  S
Eu387       O388   2.344   1_556  S
Eu387       O395   2.320   1_556  S
Eu387      O2125   2.381   1_456  S
O388       Eu414   2.366       .  S
O388      Eu2145   2.329   1_455  S
O389      Eu2143   2.346   1_455  S
O389      Eu1280   2.346       .  S
C392        C986   1.483       .  S
C392       O1248   1.278       .  A
H394        O395   0.963       .  S
O395       Eu414   2.354       .  S
O395      Eu1280   2.378   1_554  S
H396        O397   0.963       .  S
O397       Eu415   2.327   1_554  S
O397       Eu417   2.358       .  S
O397      Eu2115   2.381   1_554  S
O398        C421   1.307       .  A
O398      Eu1278   2.522   1_545  S
O399        C422   1.295   1_556  A
O399      Eu1279   2.495   1_545  S
O400        C423   1.295   1_556  A
O400       Eu416   2.494       .  S
O401       C2152   1.306       .  A
O401       Eu417   2.522       .  S
O402        C425   1.292       .  A
O402       Eu417   2.484       .  S
O403        C426   1.310   1_455  A
O403       Eu416   2.541       .  S
O404        C427   1.292       .  A
O404       Eu418   2.479       .  S
O405       C1292   1.306       .  A
O405      Eu2146   2.521   1_565  S
O406        C427   1.298       .  A
O406       Eu416   2.479   1_554  S
O407        C428   1.281       .  A
O407       Eu417   2.401       .  S
O408        C423   1.298       .  A
O408      Eu1278   2.479   1_545  S
O409       C2154   1.277       .  A
O409      Eu1279   2.379   1_545  S
O410        C425   1.296       .  A
O410       Eu415   2.468   1_554  S
O411        C424   1.282       .  A
O411       Eu414   2.405       .  S
O412        C421   1.281       .  A
O412       Eu418   2.401       .  S
O413        C422   1.298       .  A
O413      Eu2146   2.479       .  S
Eu414      O1262   2.522       .  S
Eu414      O1272   2.479       .  S
Eu414       O432   2.354       .  S
Eu414      O1284   2.327       .  S
Eu415      O1263   2.495       .  S
Eu415      O1273   2.379       .  S
Eu415       O419   2.342   1_556  S
Eu415      O2117   2.346       .  S
Eu415      O3022   2.381   1_556  S
Eu416       O430   2.322   1_556  S
Eu416       O420   2.342   1_556  S
Eu416      O1253   2.346   1_545  S
Eu416      O1259   2.378   1_546  S
Eu417       O419   2.368       .  S
Eu417      O2116   2.329       .  S
Eu417      O2160   2.356       .  S
Eu418      O2133   2.521   1_445  S
Eu418      O2141   2.479   1_455  S
Eu418       O430   2.356       .  S
Eu418       O420   2.369       .  S
Eu418      O3011   2.325   1_445  S
Eu418      O1296   2.356   1_545  S
O419      Eu3010   2.325       .  S
O420      Eu1278   2.327   1_545  S
C424       O2129   1.306       .  A
C426       C2048   1.478       .  S
C426       O2137   1.277       .  A
C428       O1269   1.306       .  A
H429        O430   0.963       .  S
O430      Eu3007   2.381   1_444  S
H431        O432   0.965       .  S
O432      Eu2145   2.356   1_455  S
O432      Eu1282   2.356       .  S
O433        C444   1.305       .  A
O433       Eu469   2.518       .  S
O434        C445   1.293       .  A
O434       Eu468   2.487       .  S
O435        C446   1.292       .  A
O435       Eu441   2.480       .  S
O436        C447   1.306       .  A
O436       Eu441   2.522       .  S
O437        C447   1.281       .  A
O437       Eu471   2.404       .  S
O438        C446   1.297       .  A
O438       Eu470   2.475       .  S
O439        C445   1.298       .  A
O439       Eu441   2.480       .  S
O440        C444   1.282       .  A
O440       Eu441   2.410       .  S
Eu441       O451   2.352       .  S
Eu441       O443   2.367       .  S
Eu441       O442   2.333       .  S
Eu441       O449   2.354       .  S
O442       Eu471   2.371       .  S
O442       Eu468   2.348       .  S
O443       Eu469   2.327       .  S
O443       Eu470   2.342       .  S
H448        O449   0.963       .  S
O449       Eu470   2.319       .  S
O449       Eu468   2.383       .  S
H450        O451   0.965       .  S
O451       Eu469   2.359       .  S
O451       Eu471   2.359       .  S
O452        C475   1.312       .  A
O452       Eu468   2.552       .  S
O453        C476   1.289       .  A
O453       Eu469   2.476       .  S
O454        C477   1.311       .  A
O454       Eu470   2.546       .  S
O455        C478   1.293       .  A
O455       Eu471   2.484       .  S
O456        C479   1.308       .  A
O456       Eu471   2.529       .  S
O457        C480   1.296       .  A
O457       Eu470   2.496       .  S
O458        C481   1.309       .  A
O458       Eu472   2.538       .  S
O459        C482   1.294       .  A
O459       Eu472   2.494       .  S
O460        C481   1.278       .  A
O460       Eu470   2.383       .  S
O461        C482   1.298       .  A
O461       Eu471   2.482       .  S
O462        C477   1.280       .  A
O462       Eu468   2.391       .  S
O463        C480   1.299       .  A
O463       Eu469   2.488       .  S
O464        C479   1.281       .  A
O464       Eu469   2.400       .  S
O465        C478   1.301       .  A
O465       Eu468   2.495       .  S
O466        C475   1.276       .  A
O466       Eu472   2.373       .  S
O467        C476   1.296       .  A
O467       Eu472   2.469       .  S
Eu468       O486   2.323       .  S
Eu468       O474   2.346       .  S
Eu469       O473   2.366       .  S
Eu469       O484   2.359       .  S
Eu470       O484   2.382       .  S
Eu470       O474   2.348       .  S
Eu471       O473   2.324       .  S
Eu471       O486   2.357       .  S
Eu472       O473   2.338       .  S
Eu472       O484   2.329       .  S
Eu472       O486   2.380       .  S
Eu472       O474   2.344       .  S
C480       C1918   1.504       .  S
C482        C946   1.504   1_545  S
H483        O484   0.963       .  S
H485        O486   0.963       .  S
O487        C498   1.291       .  A
O487       Eu523   2.475       .  S
O488        C499   1.310       .  A
O488       Eu522   2.540       .  S
O489        C500   1.294       .  A
O489       Eu495   2.488       .  S
O490        C501   1.310       .  A
O490       Eu495   2.543       .  S
O491        C501   1.278       .  A
O491       Eu525   2.386       .  S
O492        C500   1.299       .  A
O492       Eu524   2.486       .  S
O493        C499   1.279       .  A
O493       Eu495   2.392       .  S
O494        C498   1.300       .  A
O494       Eu495   2.490       .  S
Eu495       O505   2.322       .  S
Eu495       O497   2.343       .  S
Eu495       O496   2.349       .  S
Eu495       O503   2.382       .  S
O496       Eu525   2.346       .  S
O496       Eu522   2.345       .  S
O497       Eu523   2.369       .  S
O497       Eu524   2.324       .  S
H502        O503   0.963       .  S
O503       Eu524   2.358       .  S
O503       Eu522   2.326       .  S
H504        O505   0.962       .  S
O505       Eu523   2.359       .  S
O505       Eu525   2.383       .  S
O506        C529   1.293       .  A
O506       Eu522   2.483       .  S
O507        C530   1.307       .  A
O507       Eu523   2.524       .  S
O508        C531   1.291       .  A
O508       Eu524   2.477       .  S
O509        C532   1.310       .  A
O509       Eu525   2.547       .  S
O510        C533   1.294       .  A
O510       Eu525   2.488       .  S
O511        C534   1.306       .  A
O511       Eu524   2.523       .  S
O512        C535   1.307       .  A
O512       Eu526   2.526       .  S
O513        C536   1.291       .  A
O513       Eu526   2.477       .  S
O514        C535   1.281       .  A
O514       Eu524   2.402       .  S
O515        C536   1.299       .  A
O515       Eu525   2.482       .  S
O516        C531   1.298       .  A
O516       Eu522   2.482       .  S
O517        C534   1.283       .  A
O517       Eu523   2.415       .  S
O518        C533   1.299       .  A
O518       Eu523   2.486       .  S
O519        C532   1.280       .  A
O519       Eu522   2.394       .  S
O520        C529   1.301       .  A
O520       Eu526   2.496       .  S
O521        C530   1.283       .  A
O521       Eu526   2.413       .  S
Eu522       O540   2.379       .  S
Eu522       O528   2.342       .  S
Eu523       O527   2.328       .  S
Eu523       O538   2.356       .  S
Eu524       O538   2.359       .  S
Eu524       O528   2.369       .  S
Eu525       O527   2.344       .  S
Eu525       O540   2.320       .  S
Eu526       O527   2.370       .  S
Eu526       O538   2.361       .  S
Eu526       O540   2.359       .  S
Eu526       O528   2.325       .  S
H537        O538   0.965       .  S
H539        O540   0.963       .  S
O541        C552   1.306       .  A
O541       Eu577   2.524       .  S
O542        C553   1.294       .  A
O542       Eu576   2.486       .  S
O543        C554   1.291       .  A
O543       Eu549   2.477       .  S
O544        C555   1.306       .  A
O544       Eu549   2.523       .  S
O545        C555   1.282       .  A
O545       Eu579   2.409       .  S
O546        C554   1.298       .  A
O546       Eu578   2.476       .  S
O547        C553   1.299       .  A
O547       Eu549   2.485       .  S
O548        C552   1.283       .  A
O548       Eu549   2.414       .  S
Eu549       O559   2.354       .  S
Eu549       O551   2.368       .  S
Eu549       O550   2.331       .  S
Eu549       O557   2.359       .  S
O550       Eu579   2.368       .  S
O550       Eu576   2.349       .  S
O551       Eu577   2.322       .  S
O551       Eu578   2.344       .  S
H556        O557   0.963       .  S
O557       Eu578   2.325       .  S
O557       Eu576   2.379       .  S
H558        O559   0.965       .  S
O559       Eu577   2.355       .  S
O559       Eu579   2.357       .  S
O560        C583   1.310       .  A
O560       Eu576   2.544       .  S
O561        C584   1.291       .  A
O561       Eu577   2.472       .  S
O562        C585   1.309       .  A
O562       Eu578   2.536       .  S
O563        C586   1.292       .  A
O563       Eu579   2.477       .  S
O564        C587   1.306       .  A
O564       Eu579   2.521       .  S
O565        C588   1.294       .  A
O565       Eu578   2.490       .  S
O566        C589   1.308       .  A
O566       Eu580   2.536       .  S
O567        C590   1.294       .  A
O567       Eu580   2.490       .  S
O568        C589   1.281       .  A
O568       Eu578   2.401       .  S
O569        C590   1.298       .  A
O569       Eu579   2.482       .  S
O570        C585   1.279       .  A
O570       Eu576   2.392       .  S
O571        C588   1.299       .  A
O571       Eu577   2.483       .  S
O572        C587   1.282       .  A
O572       Eu577   2.408       .  S
O573        C586   1.297       .  A
O573       Eu576   2.470       .  S
O574        C583   1.280       .  A
O574       Eu580   2.395       .  S
O575        C584   1.298       .  A
O575       Eu580   2.478       .  S
Eu576       O594   2.323       .  S
Eu576       O582   2.348       .  S
Eu577       O581   2.370       .  S
Eu577       O592   2.358       .  S
Eu578       O592   2.378       .  S
Eu578       O582   2.349       .  S
Eu579       O581   2.328       .  S
Eu579       O594   2.358       .  S
Eu580       O581   2.345       .  S
Eu580       O592   2.325       .  S
Eu580       O594   2.377       .  S
Eu580       O582   2.351       .  S
H591        O592   0.963       .  S
H593        O594   0.963       .  S
O595        C606   1.311       .  A
O595      Eu3223   2.546   1_445  S
O596        C607   1.291       .  A
O596      Eu1494   2.473   1_545  S
O597       C1472   1.310       .  A
O597       Eu603   2.542   1_565  S
O598        C609   1.295       .  A
O598       Eu603   2.497       .  S
O599        C609   1.299       .  A
O599       Eu633   2.488       .  S
O600        C608   1.277       .  A
O600       Eu632   2.378       .  S
O601        C607   1.298       .  A
O601       Eu603   2.480       .  S
O602        C606   1.278       .  A
O602       Eu603   2.382       .  S
Eu603       O613   2.380       .  S
Eu603       O604   2.342       .  S
Eu603      O1469   2.345   1_545  S
Eu603      O1475   2.324   1_545  S
O604       Eu633   2.327       .  S
O604      Eu1494   2.368   1_545  S
O605       Eu632   2.345       .  S
O605      Eu1467   2.345       .  S
O605      Eu2359   2.341   1_455  S
C608       O1461   1.310       .  A
H610        O611   0.963       .  S
O611       Eu632   2.384       .  S
O611       Eu630   2.360       .  S
O611      Eu1467   2.324       .  S
H612        O613   0.963       .  S
O613       Eu633   2.361       .  S
O613      Eu3223   2.322   1_445  S
O614        C637   1.306   1_455  A
O614       Eu630   2.523       .  S
O615        C638   1.293       .  A
O615       Eu631   2.485       .  S
O616        C639   1.294       .  A
O616       Eu632   2.488       .  S
O617        C640   1.307       .  A
O617       Eu633   2.528       .  S
O618        C641   1.292       .  A
O618      Eu2361   2.475       .  S
O619        C642   1.310       .  A
O619      Eu2360   2.543       .  S
O620        C643   1.292       .  A
O620       Eu634   2.481       .  S
O621       C1508   1.305       .  A
O621       Eu634   2.517       .  S
O622        C643   1.297       .  A
O622      Eu2360   2.471       .  S
O623        C644   1.284       .  A
O623      Eu2361   2.420       .  S
O624        C639   1.299       .  A
O624       Eu630   2.487       .  S
O625        C642   1.279       .  A
O625       Eu631   2.393       .  S
O626        C641   1.299       .  A
O626      Eu1495   2.481   1_545  S
O627        C640   1.283       .  A
O627      Eu1494   2.415   1_545  S
O628       C2365   1.283       .  A
O628       Eu634   2.413       .  S
O629        C638   1.300       .  A
O629       Eu634   2.492       .  S
Eu630      O1460   2.473       .  S
Eu630      O1491   2.415       .  S
Eu630       O648   2.359       .  S
Eu630       O636   2.329       .  S
Eu630      O1468   2.368       .  S
Eu631      O3187   2.546       .  S
Eu631      O1490   2.481       .  S
Eu631       O635   2.345       .  S
Eu631       O646   2.381       .  S
Eu631      O2333   2.341       .  S
Eu631      O3205   2.322       .  S
Eu632      O2347   2.543   1_455  S
Eu632      O2350   2.471   1_455  S
Eu632       O636   2.344       .  S
Eu632      O2374   2.320   1_455  S
Eu633      O2346   2.475   1_455  S
Eu633      O2351   2.420       .  S
Eu633      O3227   2.369   1_445  S
Eu633      O1512   2.359   1_545  S
Eu634       O635   2.329       .  S
Eu634       O646   2.358       .  S
Eu634      O2376   2.363       .  S
Eu634      O2364   2.368       .  S
O635      Eu3225   2.369       .  S
O636      Eu2362   2.368   1_455  S
C637       C1805   1.484       .  S
C637       O2356   1.283       .  A
C644       O1485   1.305   1_545  A
H645        O646   0.963       .  S
O646      Eu2360   2.320       .  S
H647       O1512   0.965       .  S
O648      Eu1497   2.359       .  S
O648      Eu2362   2.363   1_455  S
O648       H1511   0.965       .  S
C649        C650   1.394       .  A
C649        C654   1.416       .  A
C650        C651   1.388       .  A
C650        H655   1.085       .  S
C651        C652   1.417       .  A
C651        C658   1.447       .  S
C652        C653   1.394       .  A
C653        C654   1.389       .  A
C653        H656   1.085       .  S
C654        C657   1.446       .  S
C657        N659   1.157       .  T
C658        N660   1.158       .  T
C661        C662   1.402       .  A
C661        C666   1.405       .  A
C662       C2391   1.390   1_455  A
C662        H667   1.085       .  S
C663       C2390   1.390       .  A
C663       C2392   1.404       .  A
C663        C670   1.444       .  S
C664       C2019   1.455       .  S
C664        C665   1.403   1_655  A
C664       C2391   1.404       .  A
C665        C666   1.393       .  A
C665        H668   1.085       .  S
C666        C669   1.444       .  S
C669        N671   1.157       .  T
C670        N672   1.157       .  T
C673        C674   1.402       .  A
C673        C678   1.403       .  A
C674        C675   1.391       .  A
C674        H679   1.085       .  S
C675        C676   1.403       .  A
C675        C682   1.444       .  S
C676       C2010   1.451       .  S
C676        C677   1.402       .  A
C677        C678   1.390       .  A
C677        H680   1.085       .  S
C678        C681   1.444       .  S
C681        N683   1.157       .  T
C682        N684   1.157       .  T
C685        C686   1.393       .  A
C685       C1554   1.414   1_545  A
C686       C1551   1.388   1_545  A
C686        H691   1.085       .  S
C687        C688   1.414       .  A
C687       C1550   1.388       .  A
C687        C694   1.446       .  S
C688        C689   1.394       .  A
C689        C690   1.389       .  A
C689        H692   1.085       .  S
C690       C1549   1.414       .  A
C690        C693   1.446       .  S
C693        N695   1.157       .  T
C694        N696   1.157       .  T
C697        C698   1.395       .  A
C697        C702   1.419       .  A
C698        C699   1.388       .  A
C698        H703   1.085       .  S
C699        C700   1.419       .  A
C699        C706   1.446       .  S
C700       C1112   1.466   1_545  S
C700        C701   1.395       .  A
C701        C702   1.387       .  A
C701        H704   1.085       .  S
C702        C705   1.447       .  S
C705        N707   1.158       .  T
C706        N708   1.157       .  T
C709        C710   1.402       .  A
C709        C714   1.402       .  A
C710        C711   1.389       .  A
C710        H715   1.085       .  S
C711        C712   1.402       .  A
C711        C718   1.445       .  S
C712        C713   1.402       .  A
C713        C714   1.390       .  A
C713        H716   1.085       .  S
C714        C717   1.444       .  S
C717        N719   1.157       .  T
C718        N720   1.157       .  T
C721       C1074   1.456   1_545  S
C721        C722   1.393       .  A
C721        C726   1.415       .  A
C722        C723   1.388       .  A
C722        H727   1.085       .  S
C723        C724   1.416       .  A
C723        C730   1.446       .  S
C724        C725   1.394       .  A
C725        C726   1.389       .  A
C725        H728   1.085       .  S
C726        C729   1.446       .  S
C729        N731   1.157       .  T
C730        N732   1.157       .  T
C733        C734   1.409       .  A
C733        C738   1.411       .  A
C734        C735   1.393       .  A
C734        H739   1.085       .  S
C735        C736   1.410       .  A
C735        C742   1.437       .  S
C736        C737   1.408       .  A
C737        C738   1.391       .  A
C737        H740   1.085       .  S
C738        C741   1.437       .  S
C741        N743   1.156       .  T
C742        N744   1.155       .  T
C745        C750   1.403       .  A
C745       C1610   1.402   1_545  A
C746        C747   1.390       .  A
C746       C1609   1.402       .  A
C746        H751   1.085       .  S
C747        C748   1.403       .  A
C747        C754   1.444       .  S
C748        C749   1.402       .  A
C749       C1614   1.391       .  A
C749       H1616   1.085       .  S
C750       C1613   1.391   1_545  A
C750        C753   1.443       .  S
H752       C1613   1.085   1_545  S
C753        N755   1.157       .  T
C754        N756   1.157       .  T
C757        C758   1.393       .  A
C757        C762   1.415       .  A
C758        C759   1.388       .  A
C758        H763   1.085       .  S
C759        C760   1.415       .  A
C759        C766   1.445       .  S
C760        C761   1.394       .  A
C761        C762   1.389       .  A
C761        H764   1.085       .  S
C762        C765   1.446       .  S
C765        N767   1.157       .  T
C766        N768   1.157       .  T
C769        C770   1.397       .  A
C769        C774   1.409       .  A
C770        C771   1.391       .  A
C770        H775   1.085       .  S
C771        C772   1.409       .  A
C771       C2506   1.445       .  S
C772        C773   1.397       .  A
C773        C774   1.390       .  A
C773        H776   1.085       .  S
C774        C777   1.444       .  S
C777        N779   1.157       .  T
C778       C2499   1.445   1_455  S
C778        N780   1.157       .  T
C781        C782   1.406       .  A
C781        C786   1.402       .  A
C782        C783   1.390       .  A
C782        H787   1.085       .  S
C783        C784   1.402       .  A
C783        C790   1.444       .  S
C784        C785   1.406       .  A
C785        C786   1.388       .  A
C785        H788   1.085       .  S
C786        C789   1.444       .  S
C789        N791   1.157       .  T
C790        N792   1.157       .  T
C793        C794   1.408       .  A
C793        C798   1.402       .  A
C794        C795   1.390       .  A
C794        H799   1.085       .  S
C795        C796   1.403       .  A
C795        C802   1.444       .  S
C796        C797   1.408       .  A
C797        C798   1.385       .  A
C797        H800   1.085       .  S
C798        C801   1.445       .  S
C801        N803   1.157       .  T
C802        N804   1.157       .  T
C805        C806   1.402       .  A
C805        C810   1.407       .  A
C806        C807   1.391       .  A
C806        H811   1.085       .  S
C807        C808   1.406       .  A
C807        C814   1.445       .  S
C808        C809   1.402       .  A
C809        C810   1.392       .  A
C809        H812   1.085       .  S
C810        C813   1.445       .  S
C813        N815   1.157       .  T
C814        N816   1.157       .  T
C817        C818   1.397       .  A
C817        C822   1.410       .  A
C818        C819   1.390       .  A
C818        H823   1.085       .  S
C819        C820   1.411       .  A
C819        C826   1.445       .  S
C820        C821   1.397       .  A
C821        C822   1.391       .  A
C821        H824   1.085       .  S
C822        C825   1.445       .  S
C825        N827   1.157       .  T
C826        N828   1.157   1_554  T
C829       C1767   1.459       .  S
C829        C830   1.402   1_655  A
C829       C2562   1.408       .  A
C830        C831   1.392       .  A
C830        H835   1.085       .  S
C831        C832   1.407       .  A
C831        C838   1.445       .  S
C832        C833   1.402       .  A
C833       C2562   1.391   1_455  A
C833        H836   1.085       .  S
C834       C2557   1.408       .  A
C834       C2561   1.391       .  A
C834        C837   1.445       .  S
C837        N839   1.157       .  T
C838        N840   1.157       .  T
C841        C842   1.397       .  A
C841        C846   1.410       .  A
C842        C843   1.390       .  A
C842        H847   1.085       .  S
C843        C844   1.409       .  A
C843        C850   1.442       .  S
C844        C845   1.397       .  A
C845        C846   1.390       .  A
C845        H848   1.085       .  S
C846        C849   1.445       .  S
C849        N851   1.157       .  T
C850       N1716   1.156       .  T
N852       C1714   1.156   1_545  T
C853        C854   1.396       .  A
C853        C858   1.419       .  A
C854        C855   1.389       .  A
C854        H859   1.085       .  S
C855        C856   1.419       .  A
C855        C862   1.446       .  S
C856       C1740   1.468       .  S
C856        C857   1.395       .  A
C857        C858   1.387       .  A
C857        H860   1.085       .  S
C858        C861   1.444       .  S
C861        N863   1.157       .  T
C862       N1728   1.158       .  T
N864       C1726   1.158       .  T
C865       C1362   1.501   1_545  S
C866        C867   1.397       .  A
C867       C1717   1.469       .  S
C867        C868   1.381       .  A
C868        C869   1.386       .  A
C868        H872   1.085       .  S
C869       C1200   1.480       .  S
C869        C870   1.424       .  A
C870        H873   1.082       .  S
C874       C1393   1.503       .  S
C874        C875   1.407       .  A
C874        C879   1.426       .  A
C875        C876   1.397       .  A
C875        H880   1.083       .  S
C876       C3448   1.468   1_455  S
C876        C877   1.381       .  A
C877        C878   1.385       .  A
C877        H881   1.085   1_455  S
C878       C1470   1.481       .  S
C878        C879   1.428       .  A
C879        H882   1.083       .  S
C883        C884   1.408       .  A
C883        C888   1.428       .  A
C884        C885   1.390       .  A
C884        H889   1.084       .  S
C885       C1708   1.455       .  S
C885        C886   1.380       .  A
C886        C887   1.390       .  A
C886        H890   1.085       .  S
C887       C1398   1.487       .  S
C887        C888   1.428       .  A
C888        H891   1.082       .  S
C892       C1238   1.499       .  S
C892        C893   1.408       .  A
C892        C897   1.423       .  A
C893        C894   1.391       .  A
C893        H898   1.084       .  S
C894       C1705   1.452       .  S
C894        C895   1.381       .  A
C895        C896   1.386       .  A
C895        H899   1.085       .  S
C896       C1254   1.479       .  S
C896        C897   1.426       .  A
C897        H900   1.083       .  S
C901       C1507   1.499       .  S
C901        C902   1.408       .  A
C901        C906   1.425       .  A
C902        C903   1.391       .  A
C902       H2635   1.084       .  S
C903       C3421   1.459       .  S
C903        C904   1.382       .  A
C904        C905   1.390       .  A
C904        H908   1.085       .  S
C905       C1308   1.483       .  S
C905        C906   1.425       .  A
C906        H909   1.083       .  S
H907       C2630   1.084       .  S
C910       C1473   1.506       .  S
C910        C911   1.409       .  A
C910        C915   1.427       .  A
C911        C912   1.394       .  A
C911        H916   1.084       .  S
C912       C1696   1.458       .  S
C912        C913   1.384       .  A
C913        C914   1.387       .  A
C913        H917   1.085       .  S
C914       C1396   1.487       .  S
C914        C915   1.429       .  A
C915        H918   1.083       .  S
C919       C1257   1.501       .  S
C919        C920   1.408       .  A
C919        C924   1.425   1_554  A
C920        C921   1.391       .  A
C920        H925   1.084       .  S
C921       C1684   1.454       .  S
C921        C922   1.382   1_554  A
C922        C923   1.389       .  A
C922        H926   1.085       .  S
C923       C1231   1.482       .  S
C923        C924   1.426       .  A
C924        H927   1.083       .  S
C928       C1291   1.500       .  S
C928        C929   1.428       .  A
C928        C933   1.407       .  A
C929        C930   1.428       .  A
C929        H934   1.083       .  S
C930       C1416   1.486       .  S
C930        C931   1.391       .  A
C931        C932   1.380       .  A
C931        H935   1.085       .  S
C932       C1681   1.455       .  S
C932        C933   1.389       .  A
C933        H936   1.084       .  S
C937       C1310   1.500       .  S
C937        C938   1.407       .  A
C937        C942   1.426       .  A
C938       C2667   1.391       .  A
C938        H943   1.084       .  S
C939       C1669   1.459       .  S
C939       C2666   1.391   1_455  A
C939        C940   1.383       .  A
C940       C2669   1.390   1_455  A
C940        H944   1.085       .  S
C941       C3229   1.484       .  S
C941       C2668   1.390       .  A
C941        C942   1.426       .  A
C942        H945   1.083       .  S
C946        C947   1.408       .  A
C946        C951   1.427       .  A
C947        C948   1.392       .  A
C947        H952   1.084       .  S
C948       C1672   1.458       .  S
C948        C949   1.384       .  A
C949        C950   1.388       .  A
C949        H953   1.085       .  S
C950       C1447   1.486       .  S
C950        C951   1.429       .  A
C951        H954   1.083       .  S
C955       C1418   1.497       .  S
C955        C956   1.407       .  A
C955        C960   1.426       .  A
C956        C957   1.390       .  A
C956        H961   1.083       .  S
C957       C1657   1.460       .  S
C957        C958   1.380       .  A
C958        C959   1.387       .  A
C958        H962   1.085       .  S
C959       C1285   1.481       .  S
C959        C960   1.426       .  A
C960        H963   1.083       .  S
C964       C1454   1.502   1_545  S
C965        C966   1.395       .  A
C966       C1660   1.462       .  S
C966        C967   1.383       .  A
C967        C968   1.382       .  A
C967        H971   1.086       .  S
C968       C1339   1.479       .  S
C968        C969   1.426       .  A
C969        H972   1.083       .  S
C973       C2960   1.501       .  S
C973        C974   1.407       .  A
C973        C978   1.429       .  A
C974        C975   1.390       .  A
C974        H979   1.084       .  S
C975       C1645   1.456       .  S
C975        C976   1.380       .  A
C976        C977   1.388       .  A
C976        H980   1.085       .  S
C977       C1394   1.485       .  S
C977        C978   1.427       .  A
C978        H981   1.082       .  S
C982       C1201   1.503       .  S
C982        C983   1.408       .  A
C982        C987   1.427       .  A
C983        H988   1.084       .  S
C984       C1648   1.457       .  S
C984        C985   1.382       .  A
C985        H989   1.085       .  S
C986        C987   1.428       .  A
C987        H990   1.083       .  S
C991       C1364   1.502       .  S
C991        C992   1.407       .  A
C991        C996   1.427       .  A
C992        C993   1.391       .  A
C992        H997   1.084       .  S
C993       C1633   1.453       .  S
C993        C994   1.382       .  A
C994        C995   1.388       .  A
C994        H998   1.085       .  S
C995       C1506   1.485       .  S
C995        C996   1.429       .  A
C996        H999   1.083       .  S
C1000      C1400   1.500       .  S
C1000      C1001   1.407   1_455  A
C1000      C2733   1.428   1_455  A
C1001      C2730   1.389       .  A
C1001      H1006   1.084   1_655  S
C1002      C1636   1.454       .  S
C1002      C2729   1.389       .  A
C1002      C1003   1.380       .  A
C1003      C1004   1.390       .  A
C1003      H1007   1.085       .  S
C1004      C1235   1.485       .  S
C1004      C1005   1.428       .  A
C1005      C2728   1.428       .  A
C1005      H2736   1.083       .  S
H1008      C2733   1.083   1_455  S
C1009      C1471   1.499       .  S
C1009      C1010   1.407       .  A
C1009      C1014   1.428       .  A
C1010      C1011   1.390       .  A
C1010      H1015   1.084       .  S
C1011      C1621   1.455       .  S
C1011      C1012   1.378       .  A
C1012      C1013   1.387       .  A
C1012      H1016   1.085       .  S
C1013      C1311   1.481       .  S
C1013      C1014   1.426       .  A
C1014      H1017   1.082       .  S
C1018      C1502   1.502       .  S
C1018      C1019   1.408       .  A
C1018      C1023   1.428       .  A
C1019      C1020   1.392       .  A
C1019      H1024   1.084       .  S
C1020      C1624   1.456       .  S
C1020      C1021   1.380       .  A
C1021      C1022   1.385       .  A
C1021      H1025   1.085       .  S
C1022      C1363   1.483       .  S
C1022      C1023   1.428       .  A
C1023      H1026   1.083       .  S
C1027      C1287   1.502       .  S
C1027      C1028   1.408       .  A
C1027      C1032   1.426   1_554  A
C1028      C1029   1.391       .  A
C1028      H1033   1.084       .  S
C1029      C1609   1.453       .  S
C1029      C1030   1.382   1_554  A
C1030      C1031   1.388       .  A
C1030      H1034   1.085       .  S
C1031      C1233   1.484       .  S
C1031      C1032   1.428       .  A
C1032      H1035   1.083       .  S
C1036      C1289   1.498       .  S
C1036      C1037   1.408       .  A
C1036      C1041   1.426       .  A
C1037      C1038   1.388       .  A
C1037      H1042   1.084       .  S
C1038      C1612   1.452       .  S
C1038      C1039   1.380       .  A
C1039      C1040   1.390       .  A
C1039      H1043   1.085       .  S
C1040      C1451   1.482       .  S
C1040      C1041   1.426       .  A
C1041      H1044   1.083       .  S
C1045      C1342   1.506       .  S
C1045      C1046   1.408       .  A
C1045      C1050   1.425       .  A
C1046      C1047   1.406       .  A
C1046      H1051   1.075       .  S
C1047      C1597   1.495       .  S
C1047      C1048   1.397       .  A
C1048      C1049   1.387       .  A
C1048      H1052   1.080       .  S
C1049      C1504   1.491       .  S
C1049      C1050   1.422       .  A
C1050      H1053   1.082       .  S
C1054      C3072   1.504       .  S
C1054      C1055   1.411       .  A
C1054      C1059   1.422       .  A
C1055      C1056   1.407       .  A
C1055      H1060   1.077       .  S
C1056      C1600   1.492       .  S
C1056      C1057   1.396       .  A
C1057      C1058   1.383       .  A
C1057      H1061   1.081       .  S
C1058      C1449   1.485       .  S
C1058      C1059   1.420       .  A
C1059      H1062   1.083       .  S
C1063      C1417   1.500       .  S
C1063      C2792   1.409   1_455  A
C1063      C2796   1.426   1_455  A
C1064      C2791   1.409       .  A
C1064      C1065   1.393       .  A
C1064      H2797   1.084       .  S
C1065      C1588   1.458       .  S
C1065      C1066   1.380       .  A
C1066      C1067   1.385       .  A
C1066      H1070   1.085       .  S
C1067      C1345   1.480       .  S
C1067      C1068   1.426       .  A
C1068      C2791   1.426       .  A
C1068      H2799   1.083       .  S
H1069      C2792   1.084   1_455  S
H1071      C2796   1.083   1_455  S
C1072      C1448   1.497       .  S
C1072      C1073   1.408       .  A
C1072      C1077   1.426       .  A
C1073      C1074   1.391       .  A
C1073      H1078   1.084       .  S
C1074      C1075   1.378       .  A
C1075      C1076   1.387       .  A
C1076      C1292   1.479       .  S
C1076      C1077   1.424       .  A
C1077      H1080   1.083       .  S
C1081      C1309   1.501       .  S
C1081      C1082   1.406       .  A
C1081      C1086   1.427       .  A
C1082      C1083   1.389       .  A
C1082      H1087   1.084       .  S
C1083      C1573   1.449       .  S
C1083      C1084   1.382       .  A
C1084      C1085   1.387       .  A
C1084      H1088   1.085       .  S
C1085      C1453   1.484       .  S
C1085      C1086   1.426       .  A
C1086      H1089   1.081       .  S
C1090      C1340   1.497       .  S
C1090      C1091   1.404       .  A
C1090      C1095   1.428       .  A
C1091      H1096   1.084       .  S
C1092      C1576   1.449       .  S
C1092      C1093   1.381       .  A
C1093      H1097   1.085       .  S
C1094      C1508   1.484       .  S
C1094      C1095   1.424       .  A
C1095      H1098   1.081       .  S
C1099      C1395   1.500       .  S
C1099      C1100   1.408       .  A
C1099      C1104   1.425       .  A
C1100      C1101   1.396       .  A
C1100      H1105   1.083       .  S
C1101      C1561   1.465       .  S
C1101      C1102   1.378       .  A
C1102      C1103   1.384       .  A
C1102      H1106   1.085       .  S
C1103      C1203   1.476       .  S
C1103      C1104   1.423       .  A
C1104      H1107   1.082       .  S
C1108      C1397   1.501       .  S
C1108      C1109   1.424       .  A
C1108      C1113   1.409       .  A
C1109      C1110   1.426       .  A
C1109      H1114   1.083       .  S
C1110      C1472   1.478       .  S
C1110      C1111   1.384       .  A
C1111      C1112   1.379       .  A
C1112      C1113   1.397       .  A
C1113      H1116   1.083       .  S
C1117      C1505   1.499       .  S
C1117      C1118   1.408       .  A
C1117      C1122   1.428       .  A
C1118      C1119   1.390       .  A
C1118      H1123   1.084       .  S
C1119      C1549   1.453       .  S
C1119      C1120   1.377       .  A
C1120      C1121   1.386       .  A
C1120      H1124   1.086       .  S
C1121      C1343   1.481       .  S
C1121      C1122   1.426       .  A
C1122      H1125   1.083       .  S
C1126      C1503   1.502       .  S
C1126      C1127   1.409       .  A
C1126      C1131   1.427       .  A
C1127      C1128   1.391       .  A
C1127      H1132   1.084       .  S
C1128      C1552   1.454       .  S
C1128      C1129   1.379       .  A
C1129      C1130   1.384       .  A
C1129      H1133   1.085       .  S
C1130      C1365   1.482       .  S
C1130      C1131   1.428       .  A
C1131      H1134   1.083       .  S
C1135      C1452   1.502       .  S
C1135      C1136   1.408       .  A
C1135      C1140   1.427       .  A
C1136      C1137   1.389       .  A
C1136      H1141   1.084       .  S
C1137      C1537   1.451       .  S
C1137      C1138   1.381       .  A
C1138      C1139   1.387       .  A
C1138      H1142   1.085       .  S
C1139      C1341   1.485       .  S
C1139      C1140   1.429       .  A
C1140      H1143   1.083       .  S
C1144      C1450   1.497       .  S
C1144      C1145   1.407       .  A
C1144      C1149   1.425       .  A
C1145      C1146   1.389       .  A
C1145      H1150   1.084       .  S
C1146      C3268   1.451   1_455  S
C1146      C1147   1.380       .  A
C1147      C1148   1.389       .  A
C1147      H1151   1.086   1_455  S
C1148      C1288   1.481       .  S
C1148      C1149   1.424       .  A
C1149      H1152   1.083       .  S
C1153      C1286   1.502       .  S
C1153      C1154   1.409       .  A
C1153      C1158   1.426   1_554  A
C1154      C1155   1.391       .  A
C1154      H1159   1.084       .  S
C1155      C3256   1.455       .  S
C1155      C1156   1.382   1_554  A
C1156      C1157   1.388       .  A
C1156      H1160   1.085       .  S
C1157      C1237   1.486       .  S
C1157      C1158   1.428       .  A
C1158      H1161   1.083       .  S
C1162      C1255   1.499       .  S
C1162      C1163   1.408       .  A
C1162      C1167   1.425       .  A
C1163      C1164   1.391       .  A
C1163      H1168   1.084       .  S
C1164      C1525   1.456       .  S
C1164      C1165   1.382       .  A
C1165      C1166   1.390       .  A
C1165      H1169   1.086       .  S
C1166      C1419   1.482       .  S
C1166      C1167   1.424       .  A
C1167      H1170   1.083       .  S
C1171      C1234   1.499       .  S
C1171      C1172   1.427       .  A
C1171      C1176   1.408       .  A
C1172      C1173   1.426       .  A
C1172      H1177   1.082       .  S
C1173      C1399   1.480       .  S
C1173      C1174   1.386       .  A
C1174      C1175   1.378       .  A
C1174      H1178   1.086       .  S
C1175      C1513   1.459       .  S
C1175      C1176   1.392       .  A
C1176      H1179   1.084       .  S
C1180      C1236   1.501       .  S
C1180      C1181   1.409       .  A
C1180      C1185   1.425       .  A
C1181      C2910   1.394       .  A
C1181      H1186   1.084       .  S
C1182      C1516   1.459       .  S
C1182      C2909   1.394   1_455  A
C1182      C1183   1.379       .  A
C1183      C2912   1.383   1_455  A
C1183      H1187   1.085       .  S
C1184      C3018   1.478       .  S
C1184      C2911   1.383       .  A
C1184      C1185   1.426       .  A
C1185      H1188   1.083       .  S
O1189      C1200   1.309       .  A
O1189     Eu1225   2.536       .  S
O1190      C1201   1.294       .  A
O1190     Eu1224   2.488       .  S
O1191      C1202   1.293       .  A
O1191     Eu1197   2.485       .  S
O1192      C1203   1.308       .  A
O1192     Eu1197   2.534       .  S
O1193      C1203   1.279       .  A
O1193     Eu1227   2.391       .  S
O1194      C1202   1.299       .  A
O1194     Eu1226   2.481       .  S
O1195      C1201   1.299       .  A
O1195     Eu1197   2.485       .  S
O1196      C1200   1.280       .  A
O1196     Eu1197   2.397       .  S
Eu1197     O1207   2.357       .  S
Eu1197     O1199   2.369       .  S
Eu1197     O1198   2.323       .  S
Eu1197     O1205   2.360       .  S
O1198     Eu1227   2.369       .  S
O1198     Eu1224   2.342       .  S
O1199     Eu1225   2.325       .  S
O1199     Eu1226   2.346       .  S
H1204      O1205   0.963       .  S
O1205     Eu1226   2.328       .  S
O1205     Eu1224   2.379       .  S
H1206      O1207   0.965       .  S
O1207     Eu1225   2.351       .  S
O1207     Eu1227   2.353       .  S
O1208      C1231   1.308       .  A
O1208     Eu1224   2.534       .  S
O1209      C1232   1.291       .  A
O1209     Eu1225   2.476       .  S
O1210      C1233   1.310       .  A
O1210     Eu1226   2.542       .  S
O1211      C1234   1.292       .  A
O1211     Eu1227   2.479       .  S
O1212      C1235   1.306       .  A
O1212     Eu1227   2.525       .  S
O1213      C1236   1.294       .  A
O1213     Eu1226   2.487       .  S
O1214      C1237   1.309       .  A
O1214     Eu1228   2.537       .  S
O1215      C1238   1.294       .  A
O1215     Eu1228   2.491       .  S
O1216      C1237   1.280       .  A
O1216     Eu1226   2.400       .  S
O1217      C1238   1.296       .  A
O1217     Eu1227   2.471       .  S
O1218      C1233   1.279       .  A
O1218     Eu1224   2.393       .  S
O1219      C1236   1.299       .  A
O1219     Eu1225   2.483       .  S
O1220      C1235   1.282       .  A
O1220     Eu1225   2.410       .  S
O1221      C1234   1.298       .  A
O1221     Eu1224   2.480       .  S
O1222      C1231   1.280       .  A
O1222     Eu1228   2.396       .  S
O1223      C1232   1.300       .  A
O1223     Eu1228   2.486       .  S
Eu1224     O1242   2.330       .  S
Eu1224     O1230   2.347       .  S
Eu1225     O1229   2.369       .  S
Eu1225     O1240   2.362       .  S
Eu1226     O1240   2.380       .  S
Eu1226     O1230   2.345       .  S
Eu1227     O1229   2.321       .  S
Eu1227     O1242   2.358       .  S
Eu1228     O1229   2.342       .  S
Eu1228     O1240   2.326       .  S
Eu1228     O1242   2.381       .  S
Eu1228     O1230   2.348       .  S
C1232      C2701   1.501       .  S
H1239      O1240   0.963       .  S
H1241      O1242   0.963       .  S
O1243      C1254   1.309       .  A
O1243     Eu1279   2.538       .  S
O1244      C1255   1.293       .  A
O1244     Eu1278   2.481       .  S
O1245      C1256   1.311   1_565  A
O1245     Eu1251   2.545       .  S
O1246      C1257   1.294   1_556  A
O1246     Eu2979   2.490       .  S
O1247      C1257   1.298       .  A
O1247     Eu1281   2.478       .  S
O1248     Eu1280   2.386       .  S
O1249      C1255   1.297       .  A
O1249     Eu1251   2.471   1_554  S
O1250      C1254   1.278       .  A
O1250     Eu2979   2.381       .  S
Eu1251     O2974   2.490   1_455  S
Eu1251     O2978   2.381   1_455  S
Eu1251     O2989   2.381   1_456  S
Eu1251     O1253   2.344       .  S
Eu1251     O1252   2.344   1_556  S
Eu1251     O1259   2.320   1_556  S
O1252     Eu3009   2.329   1_455  S
O1252     Eu1278   2.366       .  S
O1253     Eu3007   2.346   1_455  S
H1258      O1259   0.963       .  S
O1259     Eu1278   2.354       .  S
H1260      O1261   0.963       .  S
O1261     Eu2979   2.381   1_554  S
O1261     Eu1279   2.327   1_554  S
O1261     Eu1281   2.358       .  S
O1262      C1285   1.307       .  A
O1263      C1286   1.295   1_556  A
O1264      C1287   1.295   1_556  A
O1264     Eu1280   2.494       .  S
O1265      C3016   1.306       .  A
O1265     Eu1281   2.522       .  S
O1266      C1289   1.292       .  A
O1266     Eu1281   2.484       .  S
O1267      C1290   1.310   1_455  A
O1267     Eu1280   2.541       .  S
O1268      C1291   1.292       .  A
O1268     Eu1282   2.479       .  S
O1269     Eu3010   2.521       .  S
O1270      C1291   1.298       .  A
O1270     Eu1280   2.479   1_554  S
O1271      C1292   1.281       .  A
O1271     Eu1281   2.401       .  S
O1272      C1287   1.298       .  A
O1273      C3018   1.277       .  A
O1274      C1289   1.296       .  A
O1274     Eu1279   2.468   1_554  S
O1275      C1288   1.282       .  A
O1275     Eu1278   2.405       .  S
O1276      C1285   1.281       .  A
O1276     Eu1282   2.401       .  S
O1277      C1286   1.298       .  A
O1277     Eu3010   2.479       .  S
Eu1278     O1296   2.354       .  S
Eu1279     O2981   2.346       .  S
Eu1279     O1283   2.342   1_556  S
Eu1279     O2158   2.381   1_566  S
Eu1280     O1294   2.322   1_556  S
Eu1280     O1284   2.342   1_556  S
Eu1281     O2980   2.329       .  S
Eu1281     O1283   2.368       .  S
Eu1281     O3024   2.356       .  S
Eu1282     O2997   2.521   1_455  S
Eu1282     O3005   2.479   1_455  S
Eu1282     O2147   2.325   1_455  S
Eu1282     O1294   2.356       .  S
Eu1282     O1284   2.369       .  S
O1283     Eu2146   2.325   1_565  S
C1288      O2993   1.306       .  A
C1290      C2912   1.478       .  S
C1290      O3001   1.277       .  A
H1293      O1294   0.963       .  S
O1294     Eu2143   2.381   1_454  S
H1295      O1296   0.965       .  S
O1296     Eu3009   2.356   1_455  S
O1297      C1308   1.305       .  A
O1297     Eu1333   2.518       .  S
O1298      C1309   1.293       .  A
O1298     Eu1332   2.487       .  S
O1299      C1310   1.292       .  A
O1299     Eu1305   2.480       .  S
O1300      C1311   1.306       .  A
O1300     Eu1305   2.522       .  S
O1301      C1311   1.281       .  A
O1301     Eu1335   2.404       .  S
O1302      C1310   1.297       .  A
O1302     Eu1334   2.475       .  S
O1303      C1309   1.298       .  A
O1303     Eu1305   2.480       .  S
O1304      C1308   1.282       .  A
O1304     Eu1305   2.410       .  S
Eu1305     O1315   2.352       .  S
Eu1305     O1307   2.367       .  S
Eu1305     O1306   2.333       .  S
Eu1305     O1313   2.354       .  S
O1306     Eu1335   2.371       .  S
O1306     Eu1332   2.348       .  S
O1307     Eu1333   2.327       .  S
O1307     Eu1334   2.342       .  S
H1312      O1313   0.963       .  S
O1313     Eu1334   2.319       .  S
O1313     Eu1332   2.383       .  S
H1314      O1315   0.965       .  S
O1315     Eu1333   2.359       .  S
O1315     Eu1335   2.359       .  S
O1316      C1339   1.312       .  A
O1316     Eu1332   2.552       .  S
O1317      C1340   1.289       .  A
O1317     Eu1333   2.476       .  S
O1318      C1341   1.311       .  A
O1318     Eu1334   2.546       .  S
O1319      C1342   1.293       .  A
O1319     Eu1335   2.484       .  S
O1320      C1343   1.308       .  A
O1320     Eu1335   2.529       .  S
O1321      C1344   1.296       .  A
O1321     Eu1334   2.496       .  S
O1322      C1345   1.309       .  A
O1322     Eu1336   2.538       .  S
O1323      C1346   1.294       .  A
O1323     Eu1336   2.494       .  S
O1324      C1345   1.278       .  A
O1324     Eu1334   2.383       .  S
O1325      C1346   1.298       .  A
O1325     Eu1335   2.482       .  S
O1326      C1341   1.280       .  A
O1326     Eu1332   2.391       .  S
O1327      C1344   1.299       .  A
O1327     Eu1333   2.488       .  S
O1328      C1343   1.281       .  A
O1328     Eu1333   2.400       .  S
O1329      C1342   1.301       .  A
O1329     Eu1332   2.495       .  S
O1330      C1339   1.276       .  A
O1330     Eu1336   2.373       .  S
O1331      C1340   1.296       .  A
O1331     Eu1336   2.469       .  S
Eu1332     O1350   2.323       .  S
Eu1332     O1338   2.346       .  S
Eu1333     O1337   2.366       .  S
Eu1333     O1348   2.359       .  S
Eu1334     O1348   2.382       .  S
Eu1334     O1338   2.348       .  S
Eu1335     O1337   2.324       .  S
Eu1335     O1350   2.357       .  S
Eu1336     O1337   2.338       .  S
Eu1336     O1348   2.329       .  S
Eu1336     O1350   2.380       .  S
Eu1336     O1338   2.344       .  S
C1344      C2782   1.504       .  S
H1347      O1348   0.963       .  S
H1349      O1350   0.963       .  S
O1351      C1362   1.291       .  A
O1351     Eu1387   2.475       .  S
O1352      C1363   1.310       .  A
O1352     Eu1386   2.540       .  S
O1353      C1364   1.294       .  A
O1353     Eu1359   2.488       .  S
O1354      C1365   1.310       .  A
O1354     Eu1359   2.543       .  S
O1355      C1365   1.278       .  A
O1355     Eu1389   2.386       .  S
O1356      C1364   1.299       .  A
O1356     Eu1388   2.486       .  S
O1357      C1363   1.279       .  A
O1357     Eu1359   2.392       .  S
O1358      C1362   1.300       .  A
O1358     Eu1359   2.490       .  S
Eu1359     O1369   2.322       .  S
Eu1359     O1361   2.343       .  S
Eu1359     O1360   2.349       .  S
Eu1359     O1367   2.382       .  S
O1360     Eu1389   2.346       .  S
O1360     Eu1386   2.345       .  S
O1361     Eu1387   2.369       .  S
O1361     Eu1388   2.324       .  S
H1366      O1367   0.963       .  S
O1367     Eu1388   2.358       .  S
O1367     Eu1386   2.326       .  S
H1368      O1369   0.962       .  S
O1369     Eu1387   2.359       .  S
O1369     Eu1389   2.383       .  S
O1370      C1393   1.293       .  A
O1370     Eu1386   2.483       .  S
O1371      C1394   1.307       .  A
O1371     Eu1387   2.524       .  S
O1372      C1395   1.291       .  A
O1372     Eu1388   2.477       .  S
O1373      C1396   1.310       .  A
O1373     Eu1389   2.547       .  S
O1374      C1397   1.294       .  A
O1374     Eu1389   2.488       .  S
O1375      C1398   1.306       .  A
O1375     Eu1388   2.523       .  S
O1376      C1399   1.307       .  A
O1376     Eu1390   2.526       .  S
O1377      C1400   1.291       .  A
O1377     Eu1390   2.477       .  S
O1378      C1399   1.281       .  A
O1378     Eu1388   2.402       .  S
O1379      C1400   1.299       .  A
O1379     Eu1389   2.482       .  S
O1380      C1395   1.298       .  A
O1380     Eu1386   2.482       .  S
O1381      C1398   1.283       .  A
O1381     Eu1387   2.415       .  S
O1382      C1397   1.299       .  A
O1382     Eu1387   2.486       .  S
O1383      C1396   1.280       .  A
O1383     Eu1386   2.394       .  S
O1384      C1393   1.301       .  A
O1384     Eu1390   2.496       .  S
O1385      C1394   1.283       .  A
O1385     Eu1390   2.413       .  S
Eu1386     O1404   2.379       .  S
Eu1386     O1392   2.342       .  S
Eu1387     O1391   2.328       .  S
Eu1387     O1402   2.356       .  S
Eu1388     O1402   2.359       .  S
Eu1388     O1392   2.369       .  S
Eu1389     O1391   2.344       .  S
Eu1389     O1404   2.320       .  S
Eu1390     O1391   2.370       .  S
Eu1390     O1402   2.361       .  S
Eu1390     O1404   2.359       .  S
Eu1390     O1392   2.325       .  S
H1401      O1402   0.965       .  S
H1403      O1404   0.963       .  S
O1405      C1416   1.306       .  A
O1405     Eu1441   2.524       .  S
O1406      C1417   1.294       .  A
O1406     Eu1440   2.486       .  S
O1407      C1418   1.291       .  A
O1407     Eu1413   2.477       .  S
O1408      C1419   1.306       .  A
O1408     Eu1413   2.523       .  S
O1409      C1419   1.282       .  A
O1409     Eu1443   2.409       .  S
O1410      C1418   1.298       .  A
O1410     Eu1442   2.476       .  S
O1411      C1417   1.299       .  A
O1411     Eu1413   2.485       .  S
O1412      C1416   1.283       .  A
O1412     Eu1413   2.414       .  S
Eu1413     O1423   2.354       .  S
Eu1413     O1415   2.368       .  S
Eu1413     O1414   2.331       .  S
Eu1413     O1421   2.359       .  S
O1414     Eu1443   2.368       .  S
O1414     Eu1440   2.349       .  S
O1415     Eu1441   2.322       .  S
O1415     Eu1442   2.344       .  S
H1420      O1421   0.963       .  S
O1421     Eu1442   2.325       .  S
O1421     Eu1440   2.379       .  S
H1422      O1423   0.965       .  S
O1423     Eu1441   2.355       .  S
O1423     Eu1443   2.357       .  S
O1424      C1447   1.310       .  A
O1424     Eu1440   2.544       .  S
O1425      C1448   1.291       .  A
O1425     Eu1441   2.472       .  S
O1426      C1449   1.309       .  A
O1426     Eu1442   2.536       .  S
O1427      C1450   1.292       .  A
O1427     Eu1443   2.477       .  S
O1428      C1451   1.306       .  A
O1428     Eu1443   2.521       .  S
O1429      C1452   1.294       .  A
O1429     Eu1442   2.490       .  S
O1430      C1453   1.308       .  A
O1430     Eu1444   2.536       .  S
O1431      C1454   1.294       .  A
O1431     Eu1444   2.490       .  S
O1432      C1453   1.281       .  A
O1432     Eu1442   2.401       .  S
O1433      C1454   1.298       .  A
O1433     Eu1443   2.482       .  S
O1434      C1449   1.279       .  A
O1434     Eu1440   2.392       .  S
O1435      C1452   1.299       .  A
O1435     Eu1441   2.483       .  S
O1436      C1451   1.282       .  A
O1436     Eu1441   2.408       .  S
O1437      C1450   1.297       .  A
O1437     Eu1440   2.470       .  S
O1438      C1447   1.280       .  A
O1438     Eu1444   2.395       .  S
O1439      C1448   1.298       .  A
O1439     Eu1444   2.478       .  S
Eu1440     O1458   2.323       .  S
Eu1440     O1446   2.348       .  S
Eu1441     O1445   2.370       .  S
Eu1441     O1456   2.358       .  S
Eu1442     O1456   2.378       .  S
Eu1442     O1446   2.349       .  S
Eu1443     O1445   2.328       .  S
Eu1443     O1458   2.358       .  S
Eu1444     O1445   2.345       .  S
Eu1444     O1456   2.325       .  S
Eu1444     O1458   2.377       .  S
Eu1444     O1446   2.351       .  S
H1455      O1456   0.963       .  S
H1457      O1458   0.963       .  S
O1459      C1470   1.311       .  A
O1459     Eu2359   2.546   1_455  S
O1460      C1471   1.291       .  A
O1461     Eu1467   2.542       .  S
O1462      C1473   1.295       .  A
O1462     Eu1467   2.497       .  S
O1463      C1473   1.299       .  A
O1463     Eu1497   2.488       .  S
O1464      C1472   1.277       .  A
O1464     Eu1496   2.378       .  S
O1465      C1471   1.298       .  A
O1465     Eu1467   2.480       .  S
O1466      C1470   1.278       .  A
O1466     Eu1467   2.382       .  S
Eu1467     O1477   2.380       .  S
Eu1467     O1468   2.342       .  S
O1468     Eu1497   2.327       .  S
O1469     Eu3223   2.341   1_455  S
O1469     Eu1496   2.345       .  S
H1474      O1475   0.963       .  S
O1475     Eu1496   2.384       .  S
O1475     Eu1494   2.360       .  S
H1476      O1477   0.963       .  S
O1477     Eu2359   2.322   1_455  S
O1477     Eu1497   2.361       .  S
O1478      C1501   1.306   1_455  A
O1478     Eu1494   2.523       .  S
O1479      C1502   1.293       .  A
O1479     Eu1495   2.485       .  S
O1480      C1503   1.294       .  A
O1480     Eu1496   2.488       .  S
O1481      C1504   1.307       .  A
O1481     Eu1497   2.528       .  S
O1482      C1505   1.292       .  A
O1482     Eu3225   2.475       .  S
O1483      C1506   1.310       .  A
O1483     Eu3224   2.543       .  S
O1484      C1507   1.292       .  A
O1484     Eu1498   2.481       .  S
O1485     Eu1498   2.517       .  S
O1486      C1507   1.297       .  A
O1486     Eu3224   2.471       .  S
O1487      C1508   1.284       .  A
O1487     Eu3225   2.420       .  S
O1488      C1503   1.299       .  A
O1488     Eu1494   2.487       .  S
O1489      C1506   1.279       .  A
O1489     Eu1495   2.393       .  S
O1490      C1505   1.299       .  A
O1491      C1504   1.283       .  A
O1492      C3229   1.283       .  A
O1492     Eu1498   2.413       .  S
O1493      C1502   1.300       .  A
O1493     Eu1498   2.492       .  S
Eu1494     O1512   2.359       .  S
Eu1494     O1500   2.329       .  S
Eu1495     O2323   2.546   1_565  S
Eu1495     O3197   2.341       .  S
Eu1495     O2341   2.322   1_565  S
Eu1495     O1499   2.345       .  S
Eu1495     O1510   2.381       .  S
Eu1496     O3211   2.543   1_455  S
Eu1496     O3214   2.471   1_455  S
Eu1496     O3238   2.320   1_455  S
Eu1496     O1500   2.344       .  S
Eu1497     O3210   2.475   1_455  S
Eu1497     O3215   2.420       .  S
Eu1497     O2363   2.369   1_455  S
Eu1498     O1499   2.329       .  S
Eu1498     O1510   2.358       .  S
Eu1498     O3240   2.363       .  S
Eu1498     O3228   2.368       .  S
O1499     Eu2361   2.369   1_565  S
O1500     Eu3226   2.368   1_455  S
C1501      C2669   1.484       .  S
C1501      O3220   1.283       .  A
H1509      O1510   0.963       .  S
O1510     Eu3224   2.320       .  S
O1512     Eu3226   2.363   1_455  S
C1513      C1514   1.394       .  A
C1513      C1518   1.416       .  A
C1514      C1515   1.388       .  A
C1514      H1519   1.085       .  S
C1515      C1516   1.417       .  A
C1515      C1522   1.447       .  S
C1516      C1517   1.394       .  A
C1517      C1518   1.389       .  A
C1517      H1520   1.085       .  S
C1518      C1521   1.446       .  S
C1521      N1523   1.157       .  T
C1522      N1524   1.158       .  T
C1525      C1526   1.402       .  A
C1525      C1530   1.405       .  A
C1526      C3255   1.390   1_455  A
C1526      H1531   1.085       .  S
C1527      C3254   1.390       .  A
C1527      C3256   1.404       .  A
C1527      C1534   1.444       .  S
C1528      C2883   1.455       .  S
C1528      C3255   1.404       .  A
C1528      C1529   1.403   1_655  A
C1529      C1530   1.393       .  A
C1529      H1532   1.085       .  S
C1530      C1533   1.444       .  S
C1533      N1535   1.157       .  T
C1534      N1536   1.157       .  T
C1537      C1538   1.402       .  A
C1537      C1542   1.403       .  A
C1538      C1539   1.391       .  A
C1538      H1543   1.085       .  S
C1539      C1540   1.403       .  A
C1539      C1546   1.444       .  S
C1540      C2874   1.451       .  S
C1540      C1541   1.402       .  A
C1541      C1542   1.390       .  A
C1541      H1544   1.085       .  S
C1542      C1545   1.444       .  S
C1545      N1547   1.157       .  T
C1546      N1548   1.157       .  T
C1549      C1550   1.393       .  A
C1550      H1555   1.085       .  S
C1551      C1552   1.414       .  A
C1551      C1558   1.446   1_565  S
C1552      C1553   1.394       .  A
C1553      C1554   1.389       .  A
C1553      H1556   1.085       .  S
C1554      C1557   1.446       .  S
C1557      N1559   1.157       .  T
C1558      N1560   1.157       .  T
C1561      C1562   1.395       .  A
C1561      C1566   1.419       .  A
C1562      C1563   1.388       .  A
C1562      H1567   1.085       .  S
C1563      C1564   1.419       .  A
C1563      C1570   1.446       .  S
C1564      C1565   1.395       .  A
C1565      C1566   1.387       .  A
C1565      H1568   1.085       .  S
C1566      C1569   1.447       .  S
C1569      N1571   1.158       .  T
C1570      N1572   1.157       .  T
C1573      C1574   1.402       .  A
C1573      C1578   1.402       .  A
C1574      C1575   1.389       .  A
C1574      H1579   1.085       .  S
C1575      C1576   1.402       .  A
C1575      C1582   1.445       .  S
C1576      C1577   1.402       .  A
C1577      C1578   1.390       .  A
C1577      H1580   1.085       .  S
C1578      C1581   1.444       .  S
C1581      N1583   1.157       .  T
C1582      N1584   1.157       .  T
C1585      C1586   1.393       .  A
C1585      C1590   1.415       .  A
C1586      C1587   1.388       .  A
C1586      H1591   1.085       .  S
C1587      C1588   1.416       .  A
C1587      C1594   1.446       .  S
C1588      C1589   1.394       .  A
C1589      C1590   1.389       .  A
C1589      H1592   1.085       .  S
C1590      C1593   1.446       .  S
C1593      N1595   1.157       .  T
C1594      N1596   1.157       .  T
C1597      C1598   1.409       .  A
C1597      C1602   1.411       .  A
C1598      C1599   1.393       .  A
C1598      H1603   1.085       .  S
C1599      C1600   1.410       .  A
C1599      C1606   1.437       .  S
C1600      C1601   1.408       .  A
C1601      C1602   1.391       .  A
C1601      H1604   1.085       .  S
C1602      C1605   1.437       .  S
C1605      N1607   1.156       .  T
C1606      N1608   1.155       .  T
C1609      C1614   1.403       .  A
C1610      C1611   1.390       .  A
C1610      H1615   1.085       .  S
C1611      C1612   1.403       .  A
C1611      C1618   1.444       .  S
C1612      C1613   1.402       .  A
C1614      C1617   1.443       .  S
C1617      N1619   1.157       .  T
C1618      N1620   1.157       .  T
C1621      C1622   1.393       .  A
C1621      C1626   1.415       .  A
C1622      C1623   1.388       .  A
C1622      H1627   1.085       .  S
C1623      C1624   1.415       .  A
C1623      C1630   1.445       .  S
C1624      C1625   1.394       .  A
C1625      C1626   1.389       .  A
C1625      H1628   1.085       .  S
C1626      C1629   1.446       .  S
C1629      N1631   1.157       .  T
C1630      N1632   1.157       .  T
C1633      C1634   1.397       .  A
C1633      C1638   1.409       .  A
C1634      C1635   1.391       .  A
C1634      H1639   1.085       .  S
C1635      C1636   1.409       .  A
C1635      C3370   1.445       .  S
C1636      C1637   1.397       .  A
C1637      C1638   1.390       .  A
C1637      H1640   1.085       .  S
C1638      C1641   1.444       .  S
C1641      N1643   1.157       .  T
C1642      C3363   1.445   1_455  S
C1642      N1644   1.157       .  T
C1645      C1646   1.406       .  A
C1645      C1650   1.402       .  A
C1646      C1647   1.390       .  A
C1646      H1651   1.085       .  S
C1647      C1648   1.402       .  A
C1647      C1654   1.444       .  S
C1648      C1649   1.406       .  A
C1649      C1650   1.388       .  A
C1649      H1652   1.085       .  S
C1650      C1653   1.444       .  S
C1653      N1655   1.157       .  T
C1654      N1656   1.157       .  T
C1657      C1658   1.408       .  A
C1657      C1662   1.402       .  A
C1658      C1659   1.390       .  A
C1658      H1663   1.085       .  S
C1659      C1660   1.403       .  A
C1659      C1666   1.444       .  S
C1660      C1661   1.408       .  A
C1661      C1662   1.385       .  A
C1661      H1664   1.085       .  S
C1662      C1665   1.445       .  S
C1665      N1667   1.157       .  T
C1666      N1668   1.157       .  T
C1669      C1670   1.402       .  A
C1669      C1674   1.407       .  A
C1670      C1671   1.391       .  A
C1670      H1675   1.085       .  S
C1671      C1672   1.406       .  A
C1671      C1678   1.445       .  S
C1672      C1673   1.402       .  A
C1673      C1674   1.392       .  A
C1673      H1676   1.085       .  S
C1674      C1677   1.445       .  S
C1677      N1679   1.157       .  T
C1678      N1680   1.157       .  T
C1681      C1682   1.397       .  A
C1681      C1686   1.410       .  A
C1682      C1683   1.390       .  A
C1682      H1687   1.085       .  S
C1683      C1684   1.411       .  A
C1683      C1690   1.445       .  S
C1684      C1685   1.397       .  A
C1685      C1686   1.391       .  A
C1685      H1688   1.085       .  S
C1686      C1689   1.445       .  S
C1689      N1691   1.157       .  T
C1690      N1692   1.157   1_554  T
C1693      C2631   1.459       .  S
C1693      C1694   1.402   1_655  A
C1693      C3426   1.408       .  A
C1694      C1695   1.392       .  A
C1694      H1699   1.085       .  S
C1695      C1696   1.407       .  A
C1695      C1702   1.445       .  S
C1696      C1697   1.402       .  A
C1697      C3426   1.391   1_455  A
C1697      H1700   1.085       .  S
C1698      C3421   1.408       .  A
C1698      C3425   1.391       .  A
C1698      C1701   1.445       .  S
C1701      N1703   1.157       .  T
C1702      N1704   1.157       .  T
C1705      C1706   1.397       .  A
C1705      C1710   1.410       .  A
C1706      C1707   1.390       .  A
C1706      H1711   1.085       .  S
C1707      C1708   1.409       .  A
C1707      C1714   1.442       .  S
C1708      C1709   1.397       .  A
C1709      C1710   1.390       .  A
C1709      H1712   1.085       .  S
C1710      C1713   1.445       .  S
C1713      N1715   1.157       .  T
C1717      C1718   1.396       .  A
C1717      C1722   1.419       .  A
C1718      C1719   1.389       .  A
C1718      H1723   1.085       .  S
C1719      C1720   1.419       .  A
C1719      C1726   1.446       .  S
C1720      C2604   1.468       .  S
C1720      C1721   1.395       .  A
C1721      C1722   1.387       .  A
C1721      H1724   1.085       .  S
C1722      C1725   1.444       .  S
C1725      N1727   1.157       .  T
C1729      C2226   1.501       .  S
C1729      C2594   1.407       .  A
C1729      C2598   1.426       .  A
C1730      C2593   1.407       .  A
C1730      C1731   1.397       .  A
C1730      H2599   1.083       .  S
C1731      C2581   1.469       .  S
C1731      C1732   1.381       .  A
C1732      C1733   1.386       .  A
C1732      H1736   1.085       .  S
C1733      C2064   1.480       .  S
C1733      C1734   1.424       .  A
C1734      C2593   1.426       .  A
C1734      H1737   1.082       .  S
H1735      C2594   1.083       .  S
C1738      C2257   1.503       .  S
C1738      C1739   1.407       .  A
C1738      C1743   1.426       .  A
C1739      C1740   1.397       .  A
C1739      H1744   1.083       .  S
C1740      C1741   1.381       .  A
C1741      C1742   1.385       .  A
C1741      H1745   1.085       .  S
C1742      C2334   1.481       .  S
C1742      C1743   1.428       .  A
C1743      H1746   1.083       .  S
C1747      C2930   1.501       .  S
C1747      C1748   1.408       .  A
C1747      C1752   1.428       .  A
C1748      C1749   1.390       .  A
C1748      H1753   1.084       .  S
C1749      C2572   1.455       .  S
C1749      C1750   1.380       .  A
C1750      C1751   1.390       .  A
C1750      H1754   1.085       .  S
C1751      C2262   1.487       .  S
C1751      C1752   1.428       .  A
C1752      H1755   1.082       .  S
C1756      C2102   1.499       .  S
C1756      C1757   1.408       .  A
C1756      C1761   1.423       .  A
C1757      C1758   1.391       .  A
C1757      H1762   1.084       .  S
C1758      C2569   1.452       .  S
C1758      C1759   1.381       .  A
C1759      C1760   1.386       .  A
C1759      H1763   1.085       .  S
C1760      C2118   1.479       .  S
C1760      C1761   1.426       .  A
C1761      H1764   1.083       .  S
C1765      C2371   1.499       .  S
C1765      C1766   1.408       .  A
C1765      C1770   1.425       .  A
C1766      C1767   1.391       .  A
C1767      C1768   1.382       .  A
C1768      C1769   1.390       .  A
C1768      H1772   1.085       .  S
C1769      C2172   1.483       .  S
C1769      C1770   1.425       .  A
C1770      H1773   1.083       .  S
C1774      C2337   1.506       .  S
C1774      C1775   1.409       .  A
C1774      C1779   1.427       .  A
C1775      C1776   1.394       .  A
C1775      H1780   1.084       .  S
C1776      C2560   1.458       .  S
C1776      C1777   1.384       .  A
C1777      C1778   1.387       .  A
C1777      H1781   1.085       .  S
C1778      C2260   1.487       .  S
C1778      C1779   1.429       .  A
C1779      H1782   1.083       .  S
C1783      C2121   1.501       .  S
C1783      C1784   1.408       .  A
C1783      C1788   1.425   1_554  A
C1784      C1785   1.391       .  A
C1784      H1789   1.084       .  S
C1785      C2548   1.454       .  S
C1785      C1786   1.382   1_554  A
C1786      C1787   1.389       .  A
C1786      H1790   1.085       .  S
C1787      C2095   1.482       .  S
C1787      C1788   1.426       .  A
C1788      H1791   1.083       .  S
C1792      C2155   1.500       .  S
C1792      C1793   1.428       .  A
C1792      C1797   1.407       .  A
C1793      C1794   1.428       .  A
C1793      H1798   1.083       .  S
C1794      C2280   1.486       .  S
C1794      C1795   1.391       .  A
C1795      C1796   1.380       .  A
C1795      H1799   1.085       .  S
C1796      C2545   1.455       .  S
C1796      C1797   1.389       .  A
C1797      H1800   1.084       .  S
C1801      C2174   1.500       .  S
C1801      C1802   1.407       .  A
C1801      C1806   1.426       .  A
C1802      H1807   1.084       .  S
C1803      C2533   1.459       .  S
C1803      C1804   1.383       .  A
C1804      H1808   1.085       .  S
C1805      C1806   1.426       .  A
C1806      H1809   1.083       .  S
C1810      C3074   1.504       .  S
C1810      C1811   1.408       .  A
C1810      C1815   1.427       .  A
C1811      C1812   1.392       .  A
C1811      H1816   1.084       .  S
C1812      C2536   1.458       .  S
C1812      C1813   1.384       .  A
C1813      C1814   1.388       .  A
C1813      H1817   1.085       .  S
C1814      C2311   1.486       .  S
C1814      C1815   1.429       .  A
C1815      H1818   1.083       .  S
C1819      C2282   1.497       .  S
C1819      C1820   1.407       .  A
C1819      C1824   1.426       .  A
C1820      C1821   1.390       .  A
C1820      H1825   1.083       .  S
C1821      C2521   1.460       .  S
C1821      C1822   1.380       .  A
C1822      C1823   1.387       .  A
C1822      H1826   1.085       .  S
C1823      C2149   1.481       .  S
C1823      C1824   1.426       .  A
C1824      H1827   1.083       .  S
C1828      C2318   1.502       .  S
C1828      C2693   1.410       .  A
C1828      C2697   1.426       .  A
C1829      C2692   1.410       .  A
C1829      C1830   1.395       .  A
C1829      H2698   1.083       .  S
C1830      C2524   1.462       .  S
C1830      C1831   1.383       .  A
C1831      C1832   1.382       .  A
C1831      H1835   1.086       .  S
C1832      C2203   1.479       .  S
C1832      C1833   1.426       .  A
C1833      C2692   1.426       .  A
C1833      H1836   1.083       .  S
H1834      C2693   1.083       .  S
C1837      C1838   1.407       .  A
C1837      C1842   1.429       .  A
C1838      C1839   1.390       .  A
C1838      H1843   1.084       .  S
C1839      C2509   1.456       .  S
C1839      C1840   1.380       .  A
C1840      C1841   1.388       .  A
C1840      H1844   1.085       .  S
C1841      C2258   1.485       .  S
C1841      C1842   1.427       .  A
C1842      H1845   1.082       .  S
C1846      C2065   1.503       .  S
C1846      C1847   1.408       .  A
C1846      C1851   1.427       .  A
C1847      C2712   1.393   1_545  A
C1847      H1852   1.084       .  S
C1848      C2512   1.457       .  S
C1848      C2711   1.393       .  A
C1848      C1849   1.382       .  A
C1849      C2714   1.385       .  A
C1849      H1853   1.085       .  S
C1850      C2984   1.483       .  S
C1850      C2713   1.385   1_545  A
C1850      C1851   1.428       .  A
C1851      H1854   1.083       .  S
C1855      C2228   1.502       .  S
C1855      C1856   1.407       .  A
C1855      C1860   1.427       .  A
C1856      C1857   1.391       .  A
C1856      H1861   1.084       .  S
C1857      C2497   1.453       .  S
C1857      C1858   1.382       .  A
C1858      C1859   1.388       .  A
C1858      H1862   1.085       .  S
C1859      C2370   1.485       .  S
C1859      C1860   1.429       .  A
C1860      H1863   1.083       .  S
C1864      C2264   1.500       .  S
C1864      C1865   1.407       .  A
C1865      H1870   1.084       .  S
C1866      C2500   1.454       .  S
C1866      C1867   1.380       .  A
C1867      C1868   1.390       .  A
C1867      H1871   1.085       .  S
C1868      C2099   1.485       .  S
C1868      C1869   1.428       .  A
C1873      C2335   1.499       .  S
C1873      C1874   1.407       .  A
C1873      C1878   1.428       .  A
C1874      C1875   1.390       .  A
C1874      H1879   1.084       .  S
C1875      C2485   1.455       .  S
C1875      C1876   1.378       .  A
C1876      C1877   1.387       .  A
C1876      H1880   1.085       .  S
C1877      C2175   1.481       .  S
C1877      C1878   1.426       .  A
C1878      H1881   1.082       .  S
C1882      C2366   1.502       .  S
C1882      C1883   1.408       .  A
C1882      C1887   1.428       .  A
C1883      C1884   1.392       .  A
C1883      H1888   1.084       .  S
C1884      C2488   1.456       .  S
C1884      C1885   1.380       .  A
C1885      C1886   1.385       .  A
C1885      H1889   1.085       .  S
C1886      C2227   1.483       .  S
C1886      C1887   1.428       .  A
C1887      H1890   1.083       .  S
C1891      C2151   1.502       .  S
C1891      C1892   1.408       .  A
C1891      C1896   1.426   1_554  A
C1892      C1893   1.391       .  A
C1892      H1897   1.084       .  S
C1893      C2473   1.453       .  S
C1893      C1894   1.382   1_554  A
C1894      C1895   1.388       .  A
C1894      H1898   1.085       .  S
C1895      C2097   1.484       .  S
C1895      C1896   1.428       .  A
C1896      H1899   1.083       .  S
C1900      C2153   1.498       .  S
C1900      C1901   1.408       .  A
C1900      C1905   1.426       .  A
C1901      C1902   1.388       .  A
C1901      H1906   1.084       .  S
C1902      C2476   1.452       .  S
C1902      C1903   1.380       .  A
C1903      C1904   1.390       .  A
C1903      H1907   1.085       .  S
C1904      C2315   1.482       .  S
C1904      C1905   1.426       .  A
C1905      H1908   1.083       .  S
C1909      C2206   1.506       .  S
C1909      C1910   1.408       .  A
C1909      C1914   1.425       .  A
C1910      C1911   1.406       .  A
C1910      H1915   1.075       .  S
C1911      C2461   1.495       .  S
C1911      C1912   1.397       .  A
C1912      C1913   1.387       .  A
C1912      H1916   1.080       .  S
C1913      C2368   1.491       .  S
C1913      C1914   1.422       .  A
C1914      H1917   1.082       .  S
C1918      C1919   1.411       .  A
C1918      C1923   1.422       .  A
C1919      C1920   1.407       .  A
C1919      H1924   1.077       .  S
C1920      C2464   1.492       .  S
C1920      C1921   1.396       .  A
C1921      C1922   1.383       .  A
C1921      H1925   1.081       .  S
C1922      C2313   1.485       .  S
C1922      C1923   1.420       .  A
C1923      H1926   1.083       .  S
C1927      C2281   1.500       .  S
C1928      C1929   1.393       .  A
C1929      C2452   1.458       .  S
C1929      C1930   1.380       .  A
C1930      C1931   1.385       .  A
C1930      H1934   1.085       .  S
C1931      C2209   1.480       .  S
C1931      C1932   1.426       .  A
C1936      C2312   1.497       .  S
C1936      C1937   1.408       .  A
C1936      C1941   1.426       .  A
C1937      C1938   1.391       .  A
C1937      H1942   1.084       .  S
C1938      C3313   1.456       .  S
C1938      C1939   1.378       .  A
C1939      C1940   1.387       .  A
C1939      H2807   1.086       .  S
C1940      C2156   1.479       .  S
C1940      C1941   1.424       .  A
C1941      H1944   1.083       .  S
H1943      C2803   1.086   1_545  S
C1945      C2173   1.501       .  S
C1945      C1946   1.406       .  A
C1945      C1950   1.427       .  A
C1946      C1947   1.389       .  A
C1946      H1951   1.084       .  S
C1947      C2437   1.449       .  S
C1947      C1948   1.382       .  A
C1948      C1949   1.387       .  A
C1948      H1952   1.085       .  S
C1949      C2317   1.484       .  S
C1949      C1950   1.426       .  A
C1950      H1953   1.081       .  S
C1954      C2204   1.497       .  S
C1954      C1955   1.404       .  A
C1954      C1959   1.428       .  A
C1955      C2820   1.387   1_545  A
C1955      H1960   1.084       .  S
C1956      C2440   1.449       .  S
C1956      C2819   1.387       .  A
C1956      C1957   1.381       .  A
C1957      C2822   1.390       .  A
C1957      H1961   1.085       .  S
C1958      C2372   1.484       .  S
C1958      C2821   1.390   1_545  A
C1958      C1959   1.424       .  A
C1959      H1962   1.081       .  S
C1963      C2259   1.500       .  S
C1963      C1964   1.408       .  A
C1963      C1968   1.425       .  A
C1964      C1965   1.396       .  A
C1964      H1969   1.083       .  S
C1965      C2425   1.465       .  S
C1965      C1966   1.378       .  A
C1966      C1967   1.384       .  A
C1966      H1970   1.085       .  S
C1967      C2067   1.476       .  S
C1967      C1968   1.423       .  A
C1968      H1971   1.082       .  S
C1972      C2261   1.501       .  S
C1972      C1973   1.424       .  A
C1972      C1977   1.409       .  A
C1973      C1974   1.426       .  A
C1973      H1978   1.083       .  S
C1974      C2336   1.478       .  S
C1974      C1975   1.384       .  A
C1975      C1976   1.379       .  A
C1975      H2843   1.085       .  S
C1976      C3292   1.466       .  S
C1976      C1977   1.397       .  A
C1977      H1980   1.083       .  S
H1979      C2839   1.085   1_545  S
C1981      C2369   1.499       .  S
C1981      C1982   1.408       .  A
C1981      C1986   1.428       .  A
C1982      C1983   1.390       .  A
C1982      H1987   1.084       .  S
C1983      C2413   1.453       .  S
C1983      C1984   1.377       .  A
C1984      C1985   1.386       .  A
C1984      H1988   1.086       .  S
C1985      C2207   1.481       .  S
C1985      C1986   1.426       .  A
C1986      H1989   1.083       .  S
C1990      C2367   1.502       .  S
C1990      C1991   1.409       .  A
C1990      C1995   1.427       .  A
C1991      C1992   1.391       .  A
C1991      H1996   1.084       .  S
C1992      C2416   1.454       .  S
C1992      C1993   1.379       .  A
C1993      C1994   1.384       .  A
C1993      H1997   1.085       .  S
C1994      C2229   1.482       .  S
C1994      C1995   1.428       .  A
C1995      H1998   1.083       .  S
C1999      C2316   1.502       .  S
C1999      C2000   1.408       .  A
C1999      C2004   1.427       .  A
C2000      C2001   1.389       .  A
C2000      H2005   1.084       .  S
C2001      C2401   1.451       .  S
C2001      C2002   1.381       .  A
C2002      C2003   1.387       .  A
C2002      H2006   1.085       .  S
C2003      C2205   1.485       .  S
C2003      C2004   1.429       .  A
C2004      H2007   1.083       .  S
C2008      C2314   1.497       .  S
C2008      C2009   1.407       .  A
C2008      C2013   1.425       .  A
C2009      C2010   1.389       .  A
C2009      H2014   1.084       .  S
C2010      C2011   1.380       .  A
C2011      C2012   1.389       .  A
C2011      H2015   1.086       .  S
C2012      C2152   1.481       .  S
C2012      C2013   1.424       .  A
C2013      H2016   1.083       .  S
C2017      C2150   1.502       .  S
C2017      C2018   1.409       .  A
C2017      C2022   1.426   1_554  A
C2018      C2019   1.391       .  A
C2018      H2023   1.084       .  S
C2019      C2020   1.382   1_554  A
C2020      C2021   1.388       .  A
C2020      H2024   1.085       .  S
C2021      C2101   1.486       .  S
C2021      C2022   1.428       .  A
C2022      H2025   1.083       .  S
C2026      C2119   1.499       .  S
C2026      C2027   1.408       .  A
C2026      C2031   1.425       .  A
C2027      C2028   1.391       .  A
C2027      H2032   1.084       .  S
C2028      C2389   1.456       .  S
C2028      C2029   1.382       .  A
C2029      C2030   1.390       .  A
C2029      H2033   1.086       .  S
C2030      C2283   1.482       .  S
C2030      C2031   1.424       .  A
C2031      H2034   1.083       .  S
C2035      C2098   1.499       .  S
C2035      C2036   1.427       .  A
C2035      C2040   1.408       .  A
C2036      C2037   1.426       .  A
C2036      H2041   1.082       .  S
C2037      C2263   1.480       .  S
C2037      C2038   1.386       .  A
C2038      C2039   1.378       .  A
C2038      H2042   1.086       .  S
C2039      C2377   1.459       .  S
C2039      C2040   1.392       .  A
C2040      H2043   1.084       .  S
C2044      C2100   1.501       .  S
C2044      C2045   1.409       .  A
C2044      C2049   1.425       .  A
C2045      H2050   1.084       .  S
C2046      C2380   1.459       .  S
C2046      C2047   1.379       .  A
C2047      H2051   1.085       .  S
C2048      C2049   1.426       .  A
C2049      H2052   1.083       .  S
O2053      C2064   1.309       .  A
O2053     Eu2089   2.536       .  S
O2054      C2065   1.294       .  A
O2054     Eu2088   2.488       .  S
O2055      C2066   1.293       .  A
O2055     Eu2061   2.485       .  S
O2056      C2067   1.308       .  A
O2056     Eu2061   2.534       .  S
O2057      C2067   1.279       .  A
O2057     Eu2091   2.391       .  S
O2058      C2066   1.299       .  A
O2058     Eu2090   2.481       .  S
O2059      C2065   1.299       .  A
O2059     Eu2061   2.485       .  S
O2060      C2064   1.280       .  A
O2060     Eu2061   2.397       .  S
Eu2061     O2071   2.357       .  S
Eu2061     O2063   2.369       .  S
Eu2061     O2062   2.323       .  S
Eu2061     O2069   2.360       .  S
O2062     Eu2091   2.369       .  S
O2062     Eu2088   2.342       .  S
O2063     Eu2089   2.325       .  S
O2063     Eu2090   2.346       .  S
C2066      C2611   1.501   1_545  S
H2068      O2069   0.963       .  S
O2069     Eu2090   2.328       .  S
O2069     Eu2088   2.379       .  S
H2070      O2071   0.965       .  S
O2071     Eu2089   2.351       .  S
O2071     Eu2091   2.353       .  S
O2072      C2095   1.308       .  A
O2072     Eu2088   2.534       .  S
O2073      C2096   1.291   1_655  A
O2073     Eu2089   2.476       .  S
O2074      C2097   1.310       .  A
O2074     Eu2090   2.542       .  S
O2075      C2098   1.292       .  A
O2075     Eu2091   2.479       .  S
O2076      C2099   1.306       .  A
O2076     Eu2091   2.525       .  S
O2077      C2100   1.294       .  A
O2077     Eu2090   2.487       .  S
O2078      C2101   1.309       .  A
O2078     Eu2092   2.537       .  S
O2079      C2102   1.294       .  A
O2079     Eu2092   2.491       .  S
O2080      C2101   1.280       .  A
O2080     Eu2090   2.400       .  S
O2081      C2102   1.296       .  A
O2081     Eu2091   2.471       .  S
O2082      C2097   1.279       .  A
O2082     Eu2088   2.393       .  S
O2083      C2100   1.299       .  A
O2083     Eu2089   2.483       .  S
O2084      C2099   1.282       .  A
O2084     Eu2089   2.410       .  S
O2085      C2098   1.298       .  A
O2085     Eu2088   2.480       .  S
O2086      C2095   1.280       .  A
O2086     Eu2092   2.396       .  S
O2087      C2096   1.300   1_655  A
O2087     Eu2092   2.486       .  S
Eu2088     O2106   2.330       .  S
Eu2088     O2094   2.347       .  S
Eu2089     O2093   2.369       .  S
Eu2089     O2104   2.362       .  S
Eu2090     O2104   2.380       .  S
Eu2090     O2094   2.345       .  S
Eu2091     O2093   2.321       .  S
Eu2091     O2106   2.358       .  S
Eu2092     O2093   2.342       .  S
Eu2092     O2104   2.326       .  S
Eu2092     O2106   2.381       .  S
Eu2092     O2094   2.348       .  S
H2103      O2104   0.963       .  S
H2105      O2106   0.963       .  S
O2107      C2118   1.309       .  A
O2107     Eu2143   2.538       .  S
O2108      C2119   1.293       .  A
O2108     Eu2142   2.481       .  S
O2109      C2120   1.311       .  A
O2109     Eu2115   2.545       .  S
O2110      C2121   1.294   1_556  A
O2111      C2121   1.298       .  A
O2111     Eu2145   2.478       .  S
O2112      C2984   1.278       .  A
O2112     Eu2144   2.386       .  S
O2113      C2119   1.297       .  A
O2113     Eu2115   2.471   1_554  S
O2114      C2118   1.278       .  A
Eu2115     O2117   2.344       .  S
Eu2115     O2116   2.344   1_556  S
Eu2115     O2123   2.320   1_556  S
O2116     Eu2142   2.366       .  S
O2117     Eu3008   2.346       .  S
C2120      C2714   1.483       .  S
C2120      O2976   1.278       .  A
H2122      O2123   0.963       .  S
O2123     Eu3008   2.378   1_554  S
O2123     Eu2142   2.354       .  S
H2124      O2125   0.963       .  S
O2125     Eu2143   2.327   1_554  S
O2125     Eu2145   2.358       .  S
O2126      C2149   1.307       .  A
O2126     Eu3006   2.522   1_545  S
O2127      C2150   1.295   1_556  A
O2127     Eu3007   2.495   1_545  S
O2128      C2151   1.295   1_556  A
O2128     Eu2144   2.494       .  S
O2129     Eu2145   2.522   1_455  S
O2130      C2153   1.292       .  A
O2130     Eu2145   2.484       .  S
O2131      C2154   1.310       .  A
O2131     Eu2144   2.541       .  S
O2132      C2155   1.292       .  A
O2132     Eu2146   2.479       .  S
O2133      C3020   1.306       .  A
O2134      C2155   1.298       .  A
O2134     Eu2144   2.479   1_554  S
O2135      C2156   1.281       .  A
O2135     Eu2145   2.401       .  S
O2136      C2151   1.298       .  A
O2136     Eu3006   2.479   1_545  S
O2137     Eu3007   2.379   1_545  S
O2138      C2153   1.296       .  A
O2138     Eu2143   2.468   1_554  S
O2139      C2152   1.282       .  A
O2139     Eu2142   2.405       .  S
O2140      C2149   1.281       .  A
O2140     Eu2146   2.401       .  S
O2141      C2150   1.298       .  A
Eu2142     O2990   2.522       .  S
Eu2142     O3000   2.479       .  S
Eu2142     O2160   2.354       .  S
Eu2142     O3012   2.327       .  S
Eu2143     O2991   2.495       .  S
Eu2143     O3001   2.379       .  S
Eu2143     O2147   2.342   1_556  S
Eu2144     O2981   2.346   1_545  S
Eu2144     O2987   2.378   1_546  S
Eu2144     O2158   2.322   1_556  S
Eu2144     O2148   2.342   1_556  S
Eu2145     O2147   2.368       .  S
Eu2146     O2158   2.356       .  S
Eu2146     O3024   2.356   1_545  S
Eu2146     O2148   2.369       .  S
O2148     Eu3006   2.327   1_545  S
C2156      O2997   1.306       .  A
H2157      O2158   0.963       .  S
H2159      O2160   0.965       .  S
O2160     Eu3010   2.356       .  S
O2161      C2172   1.305       .  A
O2161     Eu2197   2.518       .  S
O2162      C2173   1.293       .  A
O2162     Eu2196   2.487       .  S
O2163      C2174   1.292       .  A
O2163     Eu2169   2.480       .  S
O2164      C2175   1.306       .  A
O2164     Eu2169   2.522       .  S
O2165      C2175   1.281       .  A
O2165     Eu2199   2.404       .  S
O2166      C2174   1.297       .  A
O2166     Eu2198   2.475       .  S
O2167      C2173   1.298       .  A
O2167     Eu2169   2.480       .  S
O2168      C2172   1.282       .  A
O2168     Eu2169   2.410       .  S
Eu2169     O2179   2.352       .  S
Eu2169     O2171   2.367       .  S
Eu2169     O2170   2.333       .  S
Eu2169     O2177   2.354       .  S
O2170     Eu2199   2.371       .  S
O2170     Eu2196   2.348       .  S
O2171     Eu2197   2.327       .  S
O2171     Eu2198   2.342       .  S
H2176      O2177   0.963       .  S
O2177     Eu2198   2.319       .  S
O2177     Eu2196   2.383       .  S
H2178      O2179   0.965       .  S
O2179     Eu2197   2.359       .  S
O2179     Eu2199   2.359       .  S
O2180      C2203   1.312       .  A
O2180     Eu2196   2.552       .  S
O2181      C2204   1.289       .  A
O2181     Eu2197   2.476       .  S
O2182      C2205   1.311       .  A
O2182     Eu2198   2.546       .  S
O2183      C2206   1.293       .  A
O2183     Eu2199   2.484       .  S
O2184      C2207   1.308       .  A
O2184     Eu2199   2.529       .  S
O2185      C2208   1.296   1_655  A
O2185     Eu2198   2.496       .  S
O2186      C2209   1.309       .  A
O2186     Eu2200   2.538       .  S
O2187      C2210   1.294       .  A
O2187     Eu2200   2.494       .  S
O2188      C2209   1.278       .  A
O2188     Eu2198   2.383       .  S
O2189      C2210   1.298       .  A
O2189     Eu2199   2.482       .  S
O2190      C2205   1.280       .  A
O2190     Eu2196   2.391       .  S
O2191      C2208   1.299   1_655  A
O2191     Eu2197   2.488       .  S
O2192      C2207   1.281       .  A
O2192     Eu2197   2.400       .  S
O2193      C2206   1.301       .  A
O2193     Eu2196   2.495       .  S
O2194      C2203   1.276       .  A
O2194     Eu2200   2.373       .  S
O2195      C2204   1.296       .  A
O2195     Eu2200   2.469       .  S
Eu2196     O2214   2.323       .  S
Eu2196     O2202   2.346       .  S
Eu2197     O2201   2.366       .  S
Eu2197     O2212   2.359       .  S
Eu2198     O2212   2.382       .  S
Eu2198     O2202   2.348       .  S
Eu2199     O2201   2.324       .  S
Eu2199     O2214   2.357       .  S
Eu2200     O2201   2.338       .  S
Eu2200     O2212   2.329       .  S
Eu2200     O2214   2.380       .  S
Eu2200     O2202   2.344       .  S
C2210      C2674   1.504   1_545  S
H2211      O2212   0.963       .  S
H2213      O2214   0.963       .  S
O2215      C2226   1.291       .  A
O2215     Eu2251   2.475       .  S
O2216      C2227   1.310       .  A
O2216     Eu2250   2.540       .  S
O2217      C2228   1.294       .  A
O2217     Eu2223   2.488       .  S
O2218      C2229   1.310       .  A
O2218     Eu2223   2.543       .  S
O2219      C2229   1.278       .  A
O2219     Eu2253   2.386       .  S
O2220      C2228   1.299       .  A
O2220     Eu2252   2.486       .  S
O2221      C2227   1.279       .  A
O2221     Eu2223   2.392       .  S
O2222      C2226   1.300       .  A
O2222     Eu2223   2.490       .  S
Eu2223     O2233   2.322       .  S
Eu2223     O2225   2.343       .  S
Eu2223     O2224   2.349       .  S
Eu2223     O2231   2.382       .  S
O2224     Eu2253   2.346       .  S
O2224     Eu2250   2.345       .  S
O2225     Eu2251   2.369       .  S
O2225     Eu2252   2.324       .  S
H2230      O2231   0.963       .  S
O2231     Eu2252   2.358       .  S
O2231     Eu2250   2.326       .  S
H2232      O2233   0.962       .  S
O2233     Eu2251   2.359       .  S
O2233     Eu2253   2.383       .  S
O2234      C2257   1.293       .  A
O2234     Eu2250   2.483       .  S
O2235      C2258   1.307       .  A
O2235     Eu2251   2.524       .  S
O2236      C2259   1.291       .  A
O2236     Eu2252   2.477       .  S
O2237      C2260   1.310       .  A
O2237     Eu2253   2.547       .  S
O2238      C2261   1.294       .  A
O2238     Eu2253   2.488       .  S
O2239      C2262   1.306       .  A
O2239     Eu2252   2.523       .  S
O2240      C2263   1.307       .  A
O2240     Eu2254   2.526       .  S
O2241      C2264   1.291       .  A
O2241     Eu2254   2.477       .  S
O2242      C2263   1.281       .  A
O2242     Eu2252   2.402       .  S
O2243      C2264   1.299       .  A
O2243     Eu2253   2.482       .  S
O2244      C2259   1.298       .  A
O2244     Eu2250   2.482       .  S
O2245      C2262   1.283       .  A
O2245     Eu2251   2.415       .  S
O2246      C2261   1.299       .  A
O2246     Eu2251   2.486       .  S
O2247      C2260   1.280       .  A
O2247     Eu2250   2.394       .  S
O2248      C2257   1.301       .  A
O2248     Eu2254   2.496       .  S
O2249      C2258   1.283       .  A
O2249     Eu2254   2.413       .  S
Eu2250     O2268   2.379       .  S
Eu2250     O2256   2.342       .  S
Eu2251     O2255   2.328       .  S
Eu2251     O2266   2.356       .  S
Eu2252     O2266   2.359       .  S
Eu2252     O2256   2.369       .  S
Eu2253     O2255   2.344       .  S
Eu2253     O2268   2.320       .  S
Eu2254     O2255   2.370       .  S
Eu2254     O2266   2.361       .  S
Eu2254     O2268   2.359       .  S
Eu2254     O2256   2.325       .  S
H2265      O2266   0.965       .  S
H2267      O2268   0.963       .  S
O2269      C2280   1.306       .  A
O2269     Eu2305   2.524       .  S
O2270      C2281   1.294       .  A
O2270     Eu2304   2.486       .  S
O2271      C2282   1.291       .  A
O2271     Eu2277   2.477       .  S
O2272      C2283   1.306       .  A
O2272     Eu2277   2.523       .  S
O2273      C2283   1.282       .  A
O2273     Eu2307   2.409       .  S
O2274      C2282   1.298       .  A
O2274     Eu2306   2.476       .  S
O2275      C2281   1.299       .  A
O2275     Eu2277   2.485       .  S
O2276      C2280   1.283       .  A
O2276     Eu2277   2.414       .  S
Eu2277     O2287   2.354       .  S
Eu2277     O2279   2.368       .  S
Eu2277     O2278   2.331       .  S
Eu2277     O2285   2.359       .  S
O2278     Eu2307   2.368       .  S
O2278     Eu2304   2.349       .  S
O2279     Eu2305   2.322       .  S
O2279     Eu2306   2.344       .  S
H2284      O2285   0.963       .  S
O2285     Eu2306   2.325       .  S
O2285     Eu2304   2.379       .  S
H2286      O2287   0.965       .  S
O2287     Eu2305   2.355       .  S
O2287     Eu2307   2.357       .  S
O2288      C2311   1.310       .  A
O2288     Eu2304   2.544       .  S
O2289      C2312   1.291       .  A
O2289     Eu2305   2.472       .  S
O2290      C2313   1.309       .  A
O2290     Eu2306   2.536       .  S
O2291      C2314   1.292       .  A
O2291     Eu2307   2.477       .  S
O2292      C2315   1.306       .  A
O2292     Eu2307   2.521       .  S
O2293      C2316   1.294       .  A
O2293     Eu2306   2.490       .  S
O2294      C2317   1.308       .  A
O2294     Eu2308   2.536       .  S
O2295      C2318   1.294       .  A
O2295     Eu2308   2.490       .  S
O2296      C2317   1.281       .  A
O2296     Eu2306   2.401       .  S
O2297      C2318   1.298       .  A
O2297     Eu2307   2.482       .  S
O2298      C2313   1.279       .  A
O2298     Eu2304   2.392       .  S
O2299      C2316   1.299       .  A
O2299     Eu2305   2.483       .  S
O2300      C2315   1.282       .  A
O2300     Eu2305   2.408       .  S
O2301      C2314   1.297       .  A
O2301     Eu2304   2.470       .  S
O2302      C2311   1.280       .  A
O2302     Eu2308   2.395       .  S
O2303      C2312   1.298       .  A
O2303     Eu2308   2.478       .  S
Eu2304     O2322   2.323       .  S
Eu2304     O2310   2.348       .  S
Eu2305     O2309   2.370       .  S
Eu2305     O2320   2.358       .  S
Eu2306     O2320   2.378       .  S
Eu2306     O2310   2.349       .  S
Eu2307     O2309   2.328       .  S
Eu2307     O2322   2.358       .  S
Eu2308     O2309   2.345       .  S
Eu2308     O2320   2.325       .  S
Eu2308     O2322   2.377       .  S
Eu2308     O2310   2.351       .  S
H2319      O2320   0.963       .  S
H2321      O2322   0.963       .  S
O2323      C2334   1.311       .  A
O2324      C2335   1.291       .  A
O2324     Eu3222   2.473   1_545  S
O2325      C3200   1.310       .  A
O2325     Eu2331   2.542   1_565  S
O2326      C2337   1.295       .  A
O2326     Eu2331   2.497       .  S
O2327      C2337   1.299       .  A
O2327     Eu2361   2.488       .  S
O2328      C2336   1.277       .  A
O2328     Eu2360   2.378       .  S
O2329      C2335   1.298       .  A
O2329     Eu2331   2.480       .  S
O2330      C2334   1.278       .  A
O2330     Eu2331   2.382       .  S
Eu2331     O2341   2.380       .  S
Eu2331     O3197   2.345   1_545  S
Eu2331     O2332   2.342       .  S
Eu2331     O3203   2.324   1_545  S
O2332     Eu2361   2.327       .  S
O2332     Eu3222   2.368   1_545  S
O2333     Eu3195   2.345       .  S
O2333     Eu2360   2.345       .  S
C2336      O3189   1.310       .  A
H2338      O2339   0.963       .  S
O2339     Eu3195   2.324       .  S
O2339     Eu2360   2.384       .  S
O2339     Eu2358   2.360       .  S
H2340      O2341   0.963       .  S
O2341     Eu2361   2.361       .  S
O2342      C2365   1.306       .  A
O2342     Eu2358   2.523       .  S
O2343      C2366   1.293       .  A
O2343     Eu2359   2.485       .  S
O2344      C2367   1.294       .  A
O2344     Eu2360   2.488       .  S
O2345      C2368   1.307       .  A
O2345     Eu2361   2.528       .  S
O2346      C2369   1.292       .  A
O2347      C2370   1.310       .  A
O2348      C2371   1.292       .  A
O2348     Eu2362   2.481       .  S
O2349      C3236   1.305       .  A
O2349     Eu2362   2.517       .  S
O2350      C2371   1.297       .  A
O2351      C2372   1.284   1_455  A
O2352      C2367   1.299       .  A
O2352     Eu2358   2.487       .  S
O2353      C2370   1.279       .  A
O2353     Eu2359   2.393       .  S
O2354      C2369   1.299       .  A
O2354     Eu3223   2.481   1_545  S
O2355      C2368   1.283       .  A
O2355     Eu3222   2.415   1_545  S
O2356     Eu2362   2.413       .  S
O2357      C2366   1.300       .  A
O2357     Eu2362   2.492       .  S
Eu2358     O3188   2.473       .  S
Eu2358     O3219   2.415       .  S
Eu2358     O3196   2.368       .  S
Eu2358     O2376   2.359       .  S
Eu2358     O2364   2.329       .  S
Eu2359     O3218   2.481       .  S
Eu2359     O2363   2.345       .  S
Eu2359     O2374   2.381       .  S
Eu2360     O2364   2.344       .  S
Eu2361     O3240   2.359   1_545  S
Eu2362     O2363   2.329       .  S
Eu2362     O2374   2.358       .  S
C2372      O3213   1.305   1_545  A
H2373      O2374   0.963       .  S
H2375      O3240   0.965       .  S
O2376     Eu3225   2.359       .  S
O2376      H3239   0.965       .  S
C2377      C2378   1.394       .  A
C2377      C2382   1.416       .  A
C2378      C2379   1.388       .  A
C2378      H2383   1.085       .  S
C2379      C2380   1.417       .  A
C2379      C2386   1.447       .  S
C2380      C2381   1.394       .  A
C2381      C2382   1.389       .  A
C2381      H2384   1.085       .  S
C2382      C2385   1.446       .  S
C2385      N2387   1.157       .  T
C2386      N2388   1.158       .  T
C2389      C2390   1.402       .  A
C2389      C2394   1.405       .  A
C2390      H2395   1.085       .  S
C2391      C2398   1.444       .  S
C2392      C2393   1.403       .  A
C2393      C2394   1.393       .  A
C2393      H2396   1.085       .  S
C2394      C2397   1.444       .  S
C2397      N2399   1.157       .  T
C2398      N2400   1.157       .  T
C2401      C2402   1.402       .  A
C2401      C2406   1.403       .  A
C2402      C2403   1.391       .  A
C2402      H2407   1.085       .  S
C2403      C2404   1.403       .  A
C2403      C2410   1.444       .  S
C2404      C2405   1.402       .  A
C2405      C2406   1.390       .  A
C2405      H2408   1.085       .  S
C2406      C2409   1.444       .  S
C2409      N2411   1.157       .  T
C2410      N2412   1.157       .  T
C2413      C2414   1.393       .  A
C2413      C3282   1.414   1_545  A
C2414      C3279   1.388   1_545  A
C2414      H2419   1.085       .  S
C2415      C3278   1.388       .  A
C2415      C2416   1.414       .  A
C2415      C2422   1.446       .  S
C2416      C2417   1.394       .  A
C2417      C2418   1.389       .  A
C2417      H2420   1.085       .  S
C2418      C3277   1.414       .  A
C2418      C2421   1.446       .  S
C2421      N2423   1.157       .  T
C2422      N2424   1.157       .  T
C2425      C2426   1.395       .  A
C2425      C2430   1.419       .  A
C2426      C2427   1.388       .  A
C2426      H2431   1.085       .  S
C2427      C2428   1.419       .  A
C2427      C2434   1.446       .  S
C2428      C2840   1.466   1_545  S
C2428      C2429   1.395       .  A
C2429      C2430   1.387       .  A
C2429      H2432   1.085       .  S
C2430      C2433   1.447       .  S
C2433      N2435   1.158       .  T
C2434      N2436   1.157       .  T
C2437      C2438   1.402       .  A
C2437      C2442   1.402       .  A
C2438      C2439   1.389       .  A
C2438      H2443   1.085       .  S
C2439      C2440   1.402       .  A
C2439      C2446   1.445       .  S
C2440      C2441   1.402       .  A
C2441      C2442   1.390       .  A
C2441      H2444   1.085       .  S
C2442      C2445   1.444       .  S
C2445      N2447   1.157       .  T
C2446      N2448   1.157       .  T
C2449      C2802   1.456   1_545  S
C2449      C2450   1.393       .  A
C2449      C2454   1.415       .  A
C2450      C2451   1.388       .  A
C2450      H2455   1.085       .  S
C2451      C2452   1.416       .  A
C2451      C2458   1.446       .  S
C2452      C2453   1.394       .  A
C2453      C2454   1.389       .  A
C2453      H2456   1.085       .  S
C2454      C2457   1.446       .  S
C2457      N2459   1.157       .  T
C2458      N2460   1.157       .  T
C2461      C2462   1.409       .  A
C2461      C2466   1.411       .  A
C2462      C2463   1.393       .  A
C2462      H2467   1.085       .  S
C2463      C2464   1.410       .  A
C2463      C2470   1.437       .  S
C2464      C2465   1.408       .  A
C2465      C2466   1.391       .  A
C2465      H2468   1.085       .  S
C2466      C2469   1.437       .  S
C2469      N2471   1.156       .  T
C2470      N2472   1.155       .  T
C2473      C3338   1.402   1_545  A
C2473      C2478   1.403       .  A
C2474      C3337   1.402       .  A
C2474      C2475   1.390       .  A
C2474      H2479   1.085       .  S
C2475      C2476   1.403       .  A
C2475      C2482   1.444       .  S
C2476      C2477   1.402       .  A
C2477      C3342   1.391       .  A
C2477      H3344   1.085       .  S
C2478      C3341   1.391   1_545  A
C2478      C2481   1.443       .  S
H2480      C3341   1.085   1_545  S
C2481      N2483   1.157       .  T
C2482      N2484   1.157       .  T
C2485      C2486   1.393       .  A
C2485      C2490   1.415       .  A
C2486      C2487   1.388       .  A
C2486      H2491   1.085       .  S
C2487      C2488   1.415       .  A
C2487      C2494   1.445       .  S
C2488      C2489   1.394       .  A
C2489      C2490   1.389       .  A
C2489      H2492   1.085       .  S
C2490      C2493   1.446       .  S
C2493      N2495   1.157       .  T
C2494      N2496   1.157       .  T
C2497      C2498   1.397       .  A
C2497      C2502   1.409       .  A
C2498      C2499   1.391       .  A
C2498      H2503   1.085       .  S
C2499      C2500   1.409       .  A
C2500      C2501   1.397       .  A
C2501      C2502   1.390       .  A
C2501      H2504   1.085       .  S
C2502      C2505   1.444       .  S
C2505      N2507   1.157       .  T
C2506      N2508   1.157       .  T
C2509      C2510   1.406       .  A
C2509      C2514   1.402       .  A
C2510      C2511   1.390       .  A
C2510      H2515   1.085       .  S
C2511      C2512   1.402       .  A
C2511      C2518   1.444       .  S
C2512      C2513   1.406       .  A
C2513      C2514   1.388       .  A
C2513      H2516   1.085       .  S
C2514      C2517   1.444       .  S
C2517      N2519   1.157       .  T
C2518      N2520   1.157       .  T
C2521      C2522   1.408       .  A
C2521      C2526   1.402       .  A
C2522      C2523   1.390       .  A
C2522      H2527   1.085       .  S
C2523      C2524   1.403       .  A
C2523      C2530   1.444       .  S
C2524      C2525   1.408       .  A
C2525      C2526   1.385       .  A
C2525      H2528   1.085       .  S
C2526      C2529   1.445       .  S
C2529      N2531   1.157       .  T
C2530      N2532   1.157       .  T
C2533      C2534   1.402       .  A
C2533      C2538   1.407       .  A
C2534      C2535   1.391       .  A
C2534      H2539   1.085       .  S
C2535      C2536   1.406       .  A
C2535      C2542   1.445       .  S
C2536      C2537   1.402       .  A
C2537      C2538   1.392       .  A
C2537      H2540   1.085       .  S
C2538      C2541   1.445       .  S
C2541      N2543   1.157       .  T
C2542      N2544   1.157       .  T
C2545      C2546   1.397       .  A
C2545      C2550   1.410       .  A
C2546      C2547   1.390       .  A
C2546      H2551   1.085       .  S
C2547      C2548   1.411       .  A
C2547      C2554   1.445       .  S
C2548      C2549   1.397       .  A
C2549      C2550   1.391       .  A
C2549      H2552   1.085       .  S
C2550      C2553   1.445       .  S
C2553      N2555   1.157       .  T
C2554      N2556   1.157   1_554  T
C2557      C2558   1.402       .  A
C2558      C2559   1.392       .  A
C2558      H2563   1.085       .  S
C2559      C2560   1.407       .  A
C2559      C2566   1.445       .  S
C2560      C2561   1.402       .  A
C2561      H2564   1.085       .  S
C2562      C2565   1.445       .  S
C2565      N2567   1.157       .  T
C2566      N2568   1.157       .  T
C2569      C2570   1.397       .  A
C2569      C2574   1.410       .  A
C2570      C2571   1.390       .  A
C2570      H2575   1.085       .  S
C2571      C2572   1.409       .  A
C2571      C2578   1.442       .  S
C2572      C2573   1.397       .  A
C2573      C2574   1.390       .  A
C2573      H2576   1.085       .  S
C2574      C2577   1.445       .  S
C2577      N2579   1.157       .  T
C2578      N3444   1.156       .  T
N2580      C3442   1.156   1_545  T
C2581      C2582   1.396       .  A
C2581      C2586   1.419       .  A
C2582      C2583   1.389       .  A
C2582      H2587   1.085       .  S
C2583      C2584   1.419       .  A
C2583      C2590   1.446       .  S
C2584      C2585   1.395       .  A
C2585      C2586   1.387       .  A
C2585      H2588   1.085       .  S
C2586      C2589   1.444       .  S
C2589      N2591   1.157       .  T
C2590      N3456   1.158       .  T
N2592      C3454   1.158       .  T
C2593      C3090   1.501   1_545  S
C2594      C2595   1.397       .  A
C2595      C3445   1.469       .  S
C2595      C2596   1.381       .  A
C2596      C2597   1.386       .  A
C2596      H2600   1.085       .  S
C2597      C2928   1.480       .  S
C2597      C2598   1.424       .  A
C2598      H2601   1.082       .  S
C2602      C3121   1.503       .  S
C2602      C2603   1.407       .  A
C2602      C2607   1.426       .  A
C2603      C2604   1.397       .  A
C2603      H2608   1.083       .  S
C2604      C2605   1.381       .  A
C2605      C2606   1.385       .  A
C2605      H2609   1.085       .  S
C2606      C3198   1.481       .  S
C2606      C2607   1.428       .  A
C2607      H2610   1.083       .  S
C2611      C2612   1.408       .  A
C2611      C2616   1.428       .  A
C2612      C2613   1.390       .  A
C2612      H2617   1.084       .  S
C2613      C3436   1.455       .  S
C2613      C2614   1.380       .  A
C2614      C2615   1.390       .  A
C2614      H2618   1.085       .  S
C2615      C3126   1.487       .  S
C2615      C2616   1.428       .  A
C2616      H2619   1.082       .  S
C2620      C2966   1.499       .  S
C2620      C2621   1.408       .  A
C2620      C2625   1.423       .  A
C2621      C2622   1.391       .  A
C2621      H2626   1.084       .  S
C2622      C3433   1.452       .  S
C2622      C2623   1.381       .  A
C2623      C2624   1.386       .  A
C2623      H2627   1.085       .  S
C2624      C2982   1.479       .  S
C2624      C2625   1.426       .  A
C2625      H2628   1.083       .  S
C2629      C3235   1.499       .  S
C2629      C2630   1.408       .  A
C2629      C2634   1.425       .  A
C2630      C2631   1.391       .  A
C2631      C2632   1.382       .  A
C2632      C2633   1.390       .  A
C2632      H2636   1.085       .  S
C2633      C3036   1.483       .  S
C2633      C2634   1.425       .  A
C2634      H2637   1.083       .  S
C2638      C3201   1.506       .  S
C2638      C2639   1.409       .  A
C2638      C2643   1.427       .  A
C2639      C2640   1.394       .  A
C2639      H2644   1.084       .  S
C2640      C3424   1.458       .  S
C2640      C2641   1.384       .  A
C2641      C2642   1.387       .  A
C2641      H2645   1.085       .  S
C2642      C3124   1.487       .  S
C2642      C2643   1.429       .  A
C2643      H2646   1.083       .  S
C2647      C2985   1.501       .  S
C2647      C2648   1.408       .  A
C2647      C2652   1.425   1_554  A
C2648      C2649   1.391       .  A
C2648      H2653   1.084       .  S
C2649      C3412   1.454       .  S
C2649      C2650   1.382   1_554  A
C2650      C2651   1.389       .  A
C2650      H2654   1.085       .  S
C2651      C2959   1.482       .  S
C2651      C2652   1.426       .  A
C2652      H2655   1.083       .  S
C2656      C3019   1.500       .  S
C2656      C2657   1.428       .  A
C2656      C2661   1.407       .  A
C2657      C2658   1.428       .  A
C2657      H2662   1.083       .  S
C2658      C3144   1.486       .  S
C2658      C2659   1.391       .  A
C2659      C2660   1.380       .  A
C2659      H2663   1.085       .  S
C2660      C3409   1.455       .  S
C2660      C2661   1.389       .  A
C2661      H2664   1.084       .  S
C2665      C3038   1.500       .  S
C2665      C2666   1.407       .  A
C2665      C2670   1.426       .  A
C2666      H2671   1.084       .  S
C2667      C3397   1.459       .  S
C2667      C2668   1.383       .  A
C2668      H2672   1.085       .  S
C2669      C2670   1.426       .  A
C2670      H2673   1.083       .  S
C2674      C2675   1.408       .  A
C2674      C2679   1.427       .  A
C2675      C2676   1.392       .  A
C2675      H2680   1.084       .  S
C2676      C3400   1.458       .  S
C2676      C2677   1.384       .  A
C2677      C2678   1.388       .  A
C2677      H2681   1.085       .  S
C2678      C3175   1.486       .  S
C2678      C2679   1.429       .  A
C2679      H2682   1.083       .  S
C2683      C3146   1.497       .  S
C2683      C2684   1.407       .  A
C2683      C2688   1.426       .  A
C2684      C2685   1.390       .  A
C2684      H2689   1.083       .  S
C2685      C3385   1.460       .  S
C2685      C2686   1.380       .  A
C2686      C2687   1.387       .  A
C2686      H2690   1.085       .  S
C2687      C3013   1.481       .  S
C2687      C2688   1.426       .  A
C2688      H2691   1.083       .  S
C2692      C3182   1.502   1_545  S
C2693      C2694   1.395       .  A
C2694      C3388   1.462       .  S
C2694      C2695   1.383       .  A
C2695      C2696   1.382       .  A
C2695      H2699   1.086       .  S
C2696      C3067   1.479       .  S
C2696      C2697   1.426       .  A
C2697      H2700   1.083       .  S
C2701      C2702   1.407       .  A
C2701      C2706   1.429       .  A
C2702      C2703   1.390       .  A
C2702      H2707   1.084       .  S
C2703      C3373   1.456       .  S
C2703      C2704   1.380       .  A
C2704      C2705   1.388       .  A
C2704      H2708   1.085       .  S
C2705      C3122   1.485       .  S
C2705      C2706   1.427       .  A
C2706      H2709   1.082       .  S
C2710      C2929   1.503       .  S
C2710      C2711   1.408       .  A
C2710      C2715   1.427       .  A
C2711      H2716   1.084       .  S
C2712      C3376   1.457       .  S
C2712      C2713   1.382       .  A
C2713      H2717   1.085       .  S
C2714      C2715   1.428       .  A
C2715      H2718   1.083       .  S
C2719      C3092   1.502       .  S
C2719      C2720   1.407       .  A
C2719      C2724   1.427       .  A
C2720      C2721   1.391       .  A
C2720      H2725   1.084       .  S
C2721      C3361   1.453       .  S
C2721      C2722   1.382       .  A
C2722      C2723   1.388       .  A
C2722      H2726   1.085       .  S
C2723      C3234   1.485       .  S
C2723      C2724   1.429       .  A
C2724      H2727   1.083       .  S
C2728      C3128   1.500       .  S
C2728      C2729   1.407       .  A
C2729      H2734   1.084       .  S
C2730      C3364   1.454       .  S
C2730      C2731   1.380       .  A
C2731      C2732   1.390       .  A
C2731      H2735   1.085       .  S
C2732      C2963   1.485       .  S
C2732      C2733   1.428       .  A
C2737      C3199   1.499       .  S
C2737      C2738   1.407       .  A
C2737      C2742   1.428       .  A
C2738      C2739   1.390       .  A
C2738      H2743   1.084       .  S
C2739      C3349   1.455       .  S
C2739      C2740   1.378       .  A
C2740      C2741   1.387       .  A
C2740      H2744   1.085       .  S
C2741      C3039   1.481       .  S
C2741      C2742   1.426       .  A
C2742      H2745   1.082       .  S
C2746      C3230   1.502       .  S
C2746      C2747   1.408       .  A
C2746      C2751   1.428       .  A
C2747      C2748   1.392       .  A
C2747      H2752   1.084       .  S
C2748      C3352   1.456       .  S
C2748      C2749   1.380       .  A
C2749      C2750   1.385       .  A
C2749      H2753   1.085       .  S
C2750      C3091   1.483       .  S
C2750      C2751   1.428       .  A
C2751      H2754   1.083       .  S
C2755      C3015   1.502       .  S
C2755      C2756   1.408       .  A
C2755      C2760   1.426   1_554  A
C2756      C2757   1.391       .  A
C2756      H2761   1.084       .  S
C2757      C3337   1.453       .  S
C2757      C2758   1.382   1_554  A
C2758      C2759   1.388       .  A
C2758      H2762   1.085       .  S
C2759      C2961   1.484       .  S
C2759      C2760   1.428       .  A
C2760      H2763   1.083       .  S
C2764      C3017   1.498       .  S
C2764      C2765   1.408       .  A
C2764      C2769   1.426       .  A
C2765      C2766   1.388       .  A
C2765      H2770   1.084       .  S
C2766      C3340   1.452       .  S
C2766      C2767   1.380       .  A
C2767      C2768   1.390       .  A
C2767      H2771   1.085       .  S
C2768      C3179   1.482       .  S
C2768      C2769   1.426       .  A
C2769      H2772   1.083       .  S
C2773      C3070   1.506       .  S
C2773      C2774   1.408       .  A
C2773      C2778   1.425       .  A
C2774      C2775   1.406       .  A
C2774      H2779   1.075       .  S
C2775      C3325   1.495       .  S
C2775      C2776   1.397       .  A
C2776      C2777   1.387       .  A
C2776      H2780   1.080       .  S
C2777      C3232   1.491       .  S
C2777      C2778   1.422       .  A
C2778      H2781   1.082       .  S
C2782      C2783   1.411       .  A
C2782      C2787   1.422       .  A
C2783      C2784   1.407       .  A
C2783      H2788   1.077       .  S
C2784      C3328   1.492       .  S
C2784      C2785   1.396       .  A
C2785      C2786   1.383       .  A
C2785      H2789   1.081       .  S
C2786      C3177   1.485       .  S
C2786      C2787   1.420       .  A
C2787      H2790   1.083       .  S
C2791      C3145   1.500       .  S
C2792      C2793   1.393       .  A
C2793      C3316   1.458       .  S
C2793      C2794   1.380       .  A
C2794      C2795   1.385       .  A
C2794      H2798   1.085       .  S
C2795      C3073   1.480       .  S
C2795      C2796   1.426       .  A
C2800      C3176   1.497       .  S
C2800      C2801   1.408       .  A
C2800      C2805   1.426       .  A
C2801      C2802   1.391       .  A
C2801      H2806   1.084       .  S
C2802      C2803   1.378       .  A
C2803      C2804   1.387       .  A
C2804      C3020   1.479       .  S
C2804      C2805   1.424       .  A
C2805      H2808   1.083       .  S
C2809      C3037   1.501       .  S
C2809      C2810   1.406       .  A
C2809      C2814   1.427       .  A
C2810      C2811   1.389       .  A
C2810      H2815   1.084       .  S
C2811      C3301   1.449       .  S
C2811      C2812   1.382       .  A
C2812      C2813   1.387       .  A
C2812      H2816   1.085       .  S
C2813      C3181   1.484       .  S
C2813      C2814   1.426       .  A
C2814      H2817   1.081       .  S
C2818      C3068   1.497       .  S
C2818      C2819   1.404       .  A
C2818      C2823   1.428       .  A
C2819      H2824   1.084       .  S
C2820      C3304   1.449       .  S
C2820      C2821   1.381       .  A
C2821      H2825   1.085       .  S
C2822      C3236   1.484       .  S
C2822      C2823   1.424       .  A
C2823      H2826   1.081       .  S
C2827      C3123   1.500       .  S
C2827      C2828   1.408       .  A
C2827      C2832   1.425       .  A
C2828      C2829   1.396       .  A
C2828      H2833   1.083       .  S
C2829      C3289   1.465       .  S
C2829      C2830   1.378       .  A
C2830      C2831   1.384       .  A
C2830      H2834   1.085       .  S
C2831      C2931   1.476       .  S
C2831      C2832   1.423       .  A
C2832      H2835   1.082       .  S
C2836      C3125   1.501       .  S
C2836      C2837   1.424       .  A
C2836      C2841   1.409       .  A
C2837      C2838   1.426       .  A
C2837      H2842   1.083       .  S
C2838      C3200   1.478       .  S
C2838      C2839   1.384       .  A
C2839      C2840   1.379       .  A
C2840      C2841   1.397       .  A
C2841      H2844   1.083       .  S
C2845      C3233   1.499       .  S
C2845      C2846   1.408       .  A
C2845      C2850   1.428       .  A
C2846      C2847   1.390       .  A
C2846      H2851   1.084       .  S
C2847      C3277   1.453       .  S
C2847      C2848   1.377       .  A
C2848      C2849   1.386       .  A
C2848      H2852   1.086       .  S
C2849      C3071   1.481       .  S
C2849      C2850   1.426       .  A
C2850      H2853   1.083       .  S
C2854      C3231   1.502       .  S
C2854      C2855   1.409       .  A
C2854      C2859   1.427       .  A
C2855      C2856   1.391       .  A
C2855      H2860   1.084       .  S
C2856      C3280   1.454       .  S
C2856      C2857   1.379       .  A
C2857      C2858   1.384       .  A
C2857      H2861   1.085       .  S
C2858      C3093   1.482       .  S
C2858      C2859   1.428       .  A
C2859      H2862   1.083       .  S
C2863      C3180   1.502       .  S
C2863      C2864   1.408       .  A
C2863      C2868   1.427       .  A
C2864      C2865   1.389       .  A
C2864      H2869   1.084       .  S
C2865      C3265   1.451       .  S
C2865      C2866   1.381       .  A
C2866      C2867   1.387       .  A
C2866      H2870   1.085       .  S
C2867      C3069   1.485       .  S
C2867      C2868   1.429       .  A
C2868      H2871   1.083       .  S
C2872      C3178   1.497       .  S
C2872      C2873   1.407       .  A
C2872      C2877   1.425       .  A
C2873      C2874   1.389       .  A
C2873      H2878   1.084       .  S
C2874      C2875   1.380       .  A
C2875      C2876   1.389       .  A
C2875      H2879   1.086       .  S
C2876      C3016   1.481       .  S
C2876      C2877   1.424       .  A
C2877      H2880   1.083       .  S
C2881      C3014   1.502       .  S
C2881      C2882   1.409       .  A
C2881      C2886   1.426   1_554  A
C2882      C2883   1.391       .  A
C2882      H2887   1.084       .  S
C2883      C2884   1.382   1_554  A
C2884      C2885   1.388       .  A
C2884      H2888   1.085       .  S
C2885      C2965   1.486       .  S
C2885      C2886   1.428       .  A
C2886      H2889   1.083       .  S
C2890      C2983   1.499       .  S
C2890      C2891   1.408       .  A
C2890      C2895   1.425       .  A
C2891      C2892   1.391       .  A
C2891      H2896   1.084       .  S
C2892      C3253   1.456       .  S
C2892      C2893   1.382       .  A
C2893      C2894   1.390       .  A
C2893      H2897   1.086       .  S
C2894      C3147   1.482       .  S
C2894      C2895   1.424       .  A
C2895      H2898   1.083       .  S
C2899      C2962   1.499       .  S
C2899      C2900   1.427       .  A
C2899      C2904   1.408       .  A
C2900      C2901   1.426       .  A
C2900      H2905   1.082       .  S
C2901      C3127   1.480       .  S
C2901      C2902   1.386       .  A
C2902      C2903   1.378       .  A
C2902      H2906   1.086       .  S
C2903      C3241   1.459       .  S
C2903      C2904   1.392       .  A
C2904      H2907   1.084       .  S
C2908      C2964   1.501       .  S
C2908      C2909   1.409       .  A
C2908      C2913   1.425       .  A
C2909      H2914   1.084       .  S
C2910      C3244   1.459       .  S
C2910      C2911   1.379       .  A
C2911      H2915   1.085       .  S
C2912      C2913   1.426       .  A
C2913      H2916   1.083       .  S
O2917      C2928   1.309       .  A
O2917     Eu2953   2.536       .  S
O2918      C2929   1.294       .  A
O2918     Eu2952   2.488       .  S
O2919      C2930   1.293       .  A
O2919     Eu2925   2.485       .  S
O2920      C2931   1.308       .  A
O2920     Eu2925   2.534       .  S
O2921      C2931   1.279       .  A
O2921     Eu2955   2.391       .  S
O2922      C2930   1.299       .  A
O2922     Eu2954   2.481       .  S
O2923      C2929   1.299       .  A
O2923     Eu2925   2.485       .  S
O2924      C2928   1.280       .  A
O2924     Eu2925   2.397       .  S
Eu2925     O2935   2.357       .  S
Eu2925     O2927   2.369       .  S
Eu2925     O2926   2.323       .  S
Eu2925     O2933   2.360       .  S
O2926     Eu2955   2.369       .  S
O2926     Eu2952   2.342       .  S
O2927     Eu2953   2.325       .  S
O2927     Eu2954   2.346       .  S
H2932      O2933   0.963       .  S
O2933     Eu2954   2.328       .  S
O2933     Eu2952   2.379       .  S
H2934      O2935   0.965       .  S
O2935     Eu2953   2.351       .  S
O2935     Eu2955   2.353       .  S
O2936      C2959   1.308       .  A
O2936     Eu2952   2.534       .  S
O2937      C2960   1.291   1_655  A
O2937     Eu2953   2.476       .  S
O2938      C2961   1.310       .  A
O2938     Eu2954   2.542       .  S
O2939      C2962   1.292       .  A
O2939     Eu2955   2.479       .  S
O2940      C2963   1.306       .  A
O2940     Eu2955   2.525       .  S
O2941      C2964   1.294       .  A
O2941     Eu2954   2.487       .  S
O2942      C2965   1.309       .  A
O2942     Eu2956   2.537       .  S
O2943      C2966   1.294       .  A
O2943     Eu2956   2.491       .  S
O2944      C2965   1.280       .  A
O2944     Eu2954   2.400       .  S
O2945      C2966   1.296       .  A
O2945     Eu2955   2.471       .  S
O2946      C2961   1.279       .  A
O2946     Eu2952   2.393       .  S
O2947      C2964   1.299       .  A
O2947     Eu2953   2.483       .  S
O2948      C2963   1.282       .  A
O2948     Eu2953   2.410       .  S
O2949      C2962   1.298       .  A
O2949     Eu2952   2.480       .  S
O2950      C2959   1.280       .  A
O2950     Eu2956   2.396       .  S
O2951      C2960   1.300   1_655  A
O2951     Eu2956   2.486       .  S
Eu2952     O2970   2.330       .  S
Eu2952     O2958   2.347       .  S
Eu2953     O2957   2.369       .  S
Eu2953     O2968   2.362       .  S
Eu2954     O2968   2.380       .  S
Eu2954     O2958   2.345       .  S
Eu2955     O2957   2.321       .  S
Eu2955     O2970   2.358       .  S
Eu2956     O2957   2.342       .  S
Eu2956     O2968   2.326       .  S
Eu2956     O2970   2.381       .  S
Eu2956     O2958   2.348       .  S
H2967      O2968   0.963       .  S
H2969      O2970   0.963       .  S
O2971      C2982   1.309       .  A
O2971     Eu3007   2.538       .  S
O2972      C2983   1.293       .  A
O2972     Eu3006   2.481       .  S
O2973      C2984   1.311   1_565  A
O2973     Eu2979   2.545       .  S
O2974      C2985   1.294   1_556  A
O2975      C2985   1.298       .  A
O2975     Eu3009   2.478       .  S
O2976     Eu3008   2.386       .  S
O2977      C2983   1.297       .  A
O2977     Eu2979   2.471   1_554  S
O2978      C2982   1.278       .  A
Eu2979     O2981   2.344       .  S
Eu2979     O2980   2.344   1_556  S
Eu2979     O2987   2.320   1_556  S
O2980     Eu3006   2.366       .  S
H2986      O2987   0.963       .  S
O2987     Eu3006   2.354       .  S
H2988      O2989   0.963       .  S
O2989     Eu3007   2.327   1_554  S
O2989     Eu3009   2.358       .  S
O2990      C3013   1.307       .  A
O2991      C3014   1.295   1_556  A
O2992      C3015   1.295   1_556  A
O2992     Eu3008   2.494       .  S
O2993     Eu3009   2.522   1_455  S
O2994      C3017   1.292       .  A
O2994     Eu3009   2.484       .  S
O2995      C3018   1.310       .  A
O2995     Eu3008   2.541       .  S
O2996      C3019   1.292       .  A
O2996     Eu3010   2.479       .  S
O2998      C3019   1.298       .  A
O2998     Eu3008   2.479   1_554  S
O2999      C3020   1.281       .  A
O2999     Eu3009   2.401       .  S
O3000      C3015   1.298       .  A
O3002      C3017   1.296       .  A
O3002     Eu3007   2.468   1_554  S
O3003      C3016   1.282       .  A
O3003     Eu3006   2.405       .  S
O3004      C3013   1.281       .  A
O3004     Eu3010   2.401       .  S
O3005      C3014   1.298       .  A
Eu3006     O3024   2.354       .  S
Eu3007     O3011   2.342   1_556  S
Eu3008     O3022   2.322   1_556  S
Eu3008     O3012   2.342   1_556  S
Eu3009     O3011   2.368       .  S
Eu3010     O3022   2.356       .  S
Eu3010     O3012   2.369       .  S
H3021      O3022   0.963       .  S
H3023      O3024   0.965       .  S
O3025      C3036   1.305       .  A
O3025     Eu3061   2.518       .  S
O3026      C3037   1.293       .  A
O3026     Eu3060   2.487       .  S
O3027      C3038   1.292       .  A
O3027     Eu3033   2.480       .  S
O3028      C3039   1.306       .  A
O3028     Eu3033   2.522       .  S
O3029      C3039   1.281       .  A
O3029     Eu3063   2.404       .  S
O3030      C3038   1.297       .  A
O3030     Eu3062   2.475       .  S
O3031      C3037   1.298       .  A
O3031     Eu3033   2.480       .  S
O3032      C3036   1.282       .  A
O3032     Eu3033   2.410       .  S
Eu3033     O3043   2.352       .  S
Eu3033     O3035   2.367       .  S
Eu3033     O3034   2.333       .  S
Eu3033     O3041   2.354       .  S
O3034     Eu3063   2.371       .  S
O3034     Eu3060   2.348       .  S
O3035     Eu3061   2.327       .  S
O3035     Eu3062   2.342       .  S
H3040      O3041   0.963       .  S
O3041     Eu3062   2.319       .  S
O3041     Eu3060   2.383       .  S
H3042      O3043   0.965       .  S
O3043     Eu3061   2.359       .  S
O3043     Eu3063   2.359       .  S
O3044      C3067   1.312       .  A
O3044     Eu3060   2.552       .  S
O3045      C3068   1.289       .  A
O3045     Eu3061   2.476       .  S
O3046      C3069   1.311       .  A
O3046     Eu3062   2.546       .  S
O3047      C3070   1.293       .  A
O3047     Eu3063   2.484       .  S
O3048      C3071   1.308       .  A
O3048     Eu3063   2.529       .  S
O3049      C3072   1.296   1_655  A
O3049     Eu3062   2.496       .  S
O3050      C3073   1.309       .  A
O3050     Eu3064   2.538       .  S
O3051      C3074   1.294       .  A
O3051     Eu3064   2.494       .  S
O3052      C3073   1.278       .  A
O3052     Eu3062   2.383       .  S
O3053      C3074   1.298       .  A
O3053     Eu3063   2.482       .  S
O3054      C3069   1.280       .  A
O3054     Eu3060   2.391       .  S
O3055      C3072   1.299   1_655  A
O3055     Eu3061   2.488       .  S
O3056      C3071   1.281       .  A
O3056     Eu3061   2.400       .  S
O3057      C3070   1.301       .  A
O3057     Eu3060   2.495       .  S
O3058      C3067   1.276       .  A
O3058     Eu3064   2.373       .  S
O3059      C3068   1.296       .  A
O3059     Eu3064   2.469       .  S
Eu3060     O3078   2.323       .  S
Eu3060     O3066   2.346       .  S
Eu3061     O3065   2.366       .  S
Eu3061     O3076   2.359       .  S
Eu3062     O3076   2.382       .  S
Eu3062     O3066   2.348       .  S
Eu3063     O3065   2.324       .  S
Eu3063     O3078   2.357       .  S
Eu3064     O3065   2.338       .  S
Eu3064     O3076   2.329       .  S
Eu3064     O3078   2.380       .  S
Eu3064     O3066   2.344       .  S
H3075      O3076   0.963       .  S
H3077      O3078   0.963       .  S
O3079      C3090   1.291       .  A
O3079     Eu3115   2.475       .  S
O3080      C3091   1.310       .  A
O3080     Eu3114   2.540       .  S
O3081      C3092   1.294       .  A
O3081     Eu3087   2.488       .  S
O3082      C3093   1.310       .  A
O3082     Eu3087   2.543       .  S
O3083      C3093   1.278       .  A
O3083     Eu3117   2.386       .  S
O3084      C3092   1.299       .  A
O3084     Eu3116   2.486       .  S
O3085      C3091   1.279       .  A
O3085     Eu3087   2.392       .  S
O3086      C3090   1.300       .  A
O3086     Eu3087   2.490       .  S
Eu3087     O3097   2.322       .  S
Eu3087     O3089   2.343       .  S
Eu3087     O3088   2.349       .  S
Eu3087     O3095   2.382       .  S
O3088     Eu3117   2.346       .  S
O3088     Eu3114   2.345       .  S
O3089     Eu3115   2.369       .  S
O3089     Eu3116   2.324       .  S
H3094      O3095   0.963       .  S
O3095     Eu3116   2.358       .  S
O3095     Eu3114   2.326       .  S
H3096      O3097   0.962       .  S
O3097     Eu3115   2.359       .  S
O3097     Eu3117   2.383       .  S
O3098      C3121   1.293       .  A
O3098     Eu3114   2.483       .  S
O3099      C3122   1.307       .  A
O3099     Eu3115   2.524       .  S
O3100      C3123   1.291       .  A
O3100     Eu3116   2.477       .  S
O3101      C3124   1.310       .  A
O3101     Eu3117   2.547       .  S
O3102      C3125   1.294       .  A
O3102     Eu3117   2.488       .  S
O3103      C3126   1.306       .  A
O3103     Eu3116   2.523       .  S
O3104      C3127   1.307       .  A
O3104     Eu3118   2.526       .  S
O3105      C3128   1.291       .  A
O3105     Eu3118   2.477       .  S
O3106      C3127   1.281       .  A
O3106     Eu3116   2.402       .  S
O3107      C3128   1.299       .  A
O3107     Eu3117   2.482       .  S
O3108      C3123   1.298       .  A
O3108     Eu3114   2.482       .  S
O3109      C3126   1.283       .  A
O3109     Eu3115   2.415       .  S
O3110      C3125   1.299       .  A
O3110     Eu3115   2.486       .  S
O3111      C3124   1.280       .  A
O3111     Eu3114   2.394       .  S
O3112      C3121   1.301       .  A
O3112     Eu3118   2.496       .  S
O3113      C3122   1.283       .  A
O3113     Eu3118   2.413       .  S
Eu3114     O3132   2.379       .  S
Eu3114     O3120   2.342       .  S
Eu3115     O3119   2.328       .  S
Eu3115     O3130   2.356       .  S
Eu3116     O3130   2.359       .  S
Eu3116     O3120   2.369       .  S
Eu3117     O3119   2.344       .  S
Eu3117     O3132   2.320       .  S
Eu3118     O3119   2.370       .  S
Eu3118     O3130   2.361       .  S
Eu3118     O3132   2.359       .  S
Eu3118     O3120   2.325       .  S
H3129      O3130   0.965       .  S
H3131      O3132   0.963       .  S
O3133      C3144   1.306       .  A
O3133     Eu3169   2.524       .  S
O3134      C3145   1.294       .  A
O3134     Eu3168   2.486       .  S
O3135      C3146   1.291       .  A
O3135     Eu3141   2.477       .  S
O3136      C3147   1.306       .  A
O3136     Eu3141   2.523       .  S
O3137      C3147   1.282       .  A
O3137     Eu3171   2.409       .  S
O3138      C3146   1.298       .  A
O3138     Eu3170   2.476       .  S
O3139      C3145   1.299       .  A
O3139     Eu3141   2.485       .  S
O3140      C3144   1.283       .  A
O3140     Eu3141   2.414       .  S
Eu3141     O3151   2.354       .  S
Eu3141     O3143   2.368       .  S
Eu3141     O3142   2.331       .  S
Eu3141     O3149   2.359       .  S
O3142     Eu3171   2.368       .  S
O3142     Eu3168   2.349       .  S
O3143     Eu3169   2.322       .  S
O3143     Eu3170   2.344       .  S
H3148      O3149   0.963       .  S
O3149     Eu3170   2.325       .  S
O3149     Eu3168   2.379       .  S
H3150      O3151   0.965       .  S
O3151     Eu3169   2.355       .  S
O3151     Eu3171   2.357       .  S
O3152      C3175   1.310       .  A
O3152     Eu3168   2.544       .  S
O3153      C3176   1.291       .  A
O3153     Eu3169   2.472       .  S
O3154      C3177   1.309       .  A
O3154     Eu3170   2.536       .  S
O3155      C3178   1.292       .  A
O3155     Eu3171   2.477       .  S
O3156      C3179   1.306       .  A
O3156     Eu3171   2.521       .  S
O3157      C3180   1.294       .  A
O3157     Eu3170   2.490       .  S
O3158      C3181   1.308       .  A
O3158     Eu3172   2.536       .  S
O3159      C3182   1.294       .  A
O3159     Eu3172   2.490       .  S
O3160      C3181   1.281       .  A
O3160     Eu3170   2.401       .  S
O3161      C3182   1.298       .  A
O3161     Eu3171   2.482       .  S
O3162      C3177   1.279       .  A
O3162     Eu3168   2.392       .  S
O3163      C3180   1.299       .  A
O3163     Eu3169   2.483       .  S
O3164      C3179   1.282       .  A
O3164     Eu3169   2.408       .  S
O3165      C3178   1.297       .  A
O3165     Eu3168   2.470       .  S
O3166      C3175   1.280       .  A
O3166     Eu3172   2.395       .  S
O3167      C3176   1.298       .  A
O3167     Eu3172   2.478       .  S
Eu3168     O3186   2.323       .  S
Eu3168     O3174   2.348       .  S
Eu3169     O3173   2.370       .  S
Eu3169     O3184   2.358       .  S
Eu3170     O3184   2.378       .  S
Eu3170     O3174   2.349       .  S
Eu3171     O3173   2.328       .  S
Eu3171     O3186   2.358       .  S
Eu3172     O3173   2.345       .  S
Eu3172     O3184   2.325       .  S
Eu3172     O3186   2.377       .  S
Eu3172     O3174   2.351       .  S
H3183      O3184   0.963       .  S
H3185      O3186   0.963       .  S
O3187      C3198   1.311       .  A
O3188      C3199   1.291       .  A
O3189     Eu3195   2.542       .  S
O3190      C3201   1.295       .  A
O3190     Eu3195   2.497       .  S
O3191      C3201   1.299       .  A
O3191     Eu3225   2.488       .  S
O3192      C3200   1.277       .  A
O3192     Eu3224   2.378       .  S
O3193      C3199   1.298       .  A
O3193     Eu3195   2.480       .  S
O3194      C3198   1.278       .  A
O3194     Eu3195   2.382       .  S
Eu3195     O3205   2.380       .  S
Eu3195     O3196   2.342       .  S
O3196     Eu3225   2.327       .  S
O3197     Eu3224   2.345       .  S
H3202      O3203   0.963       .  S
O3203     Eu3224   2.384       .  S
O3203     Eu3222   2.360       .  S
H3204      O3205   0.963       .  S
O3205     Eu3225   2.361       .  S
O3206      C3229   1.306       .  A
O3206     Eu3222   2.523       .  S
O3207      C3230   1.293       .  A
O3207     Eu3223   2.485       .  S
O3208      C3231   1.294       .  A
O3208     Eu3224   2.488       .  S
O3209      C3232   1.307       .  A
O3209     Eu3225   2.528       .  S
O3210      C3233   1.292       .  A
O3211      C3234   1.310       .  A
O3212      C3235   1.292       .  A
O3212     Eu3226   2.481       .  S
O3213     Eu3226   2.517       .  S
O3214      C3235   1.297       .  A
O3215      C3236   1.284   1_455  A
O3216      C3231   1.299       .  A
O3216     Eu3222   2.487       .  S
O3217      C3234   1.279       .  A
O3217     Eu3223   2.393       .  S
O3218      C3233   1.299       .  A
O3219      C3232   1.283       .  A
O3220     Eu3226   2.413       .  S
O3221      C3230   1.300       .  A
O3221     Eu3226   2.492       .  S
Eu3222     O3240   2.359       .  S
Eu3222     O3228   2.329       .  S
Eu3223     O3227   2.345       .  S
Eu3223     O3238   2.381       .  S
Eu3224     O3228   2.344       .  S
Eu3226     O3227   2.329       .  S
Eu3226     O3238   2.358       .  S
H3237      O3238   0.963       .  S
C3241      C3242   1.394       .  A
C3241      C3246   1.416       .  A
C3242      C3243   1.388       .  A
C3242      H3247   1.085       .  S
C3243      C3244   1.417       .  A
C3243      C3250   1.447       .  S
C3244      C3245   1.394       .  A
C3245      C3246   1.389       .  A
C3245      H3248   1.085       .  S
C3246      C3249   1.446       .  S
C3249      N3251   1.157       .  T
C3250      N3252   1.158       .  T
C3253      C3254   1.402       .  A
C3253      C3258   1.405       .  A
C3254      H3259   1.085       .  S
C3255      C3262   1.444       .  S
C3256      C3257   1.403       .  A
C3257      C3258   1.393       .  A
C3257      H3260   1.085       .  S
C3258      C3261   1.444       .  S
C3261      N3263   1.157       .  T
C3262      N3264   1.157       .  T
C3265      C3266   1.402       .  A
C3265      C3270   1.403       .  A
C3266      C3267   1.391       .  A
C3266      H3271   1.085       .  S
C3267      C3268   1.403       .  A
C3267      C3274   1.444       .  S
C3268      C3269   1.402       .  A
C3269      C3270   1.390       .  A
C3269      H3272   1.085       .  S
C3270      C3273   1.444       .  S
C3273      N3275   1.157       .  T
C3274      N3276   1.157       .  T
C3277      C3278   1.393       .  A
C3278      H3283   1.085       .  S
C3279      C3280   1.414       .  A
C3279      C3286   1.446   1_565  S
C3280      C3281   1.394       .  A
C3281      C3282   1.389       .  A
C3281      H3284   1.085       .  S
C3282      C3285   1.446       .  S
C3285      N3287   1.157       .  T
C3286      N3288   1.157       .  T
C3289      C3290   1.395       .  A
C3289      C3294   1.419       .  A
C3290      C3291   1.388       .  A
C3290      H3295   1.085       .  S
C3291      C3292   1.419       .  A
C3291      C3298   1.446       .  S
C3292      C3293   1.395       .  A
C3293      C3294   1.387       .  A
C3293      H3296   1.085       .  S
C3294      C3297   1.447       .  S
C3297      N3299   1.158       .  T
C3298      N3300   1.157       .  T
C3301      C3302   1.402       .  A
C3301      C3306   1.402       .  A
C3302      C3303   1.389       .  A
C3302      H3307   1.085       .  S
C3303      C3304   1.402       .  A
C3303      C3310   1.445       .  S
C3304      C3305   1.402       .  A
C3305      C3306   1.390       .  A
C3305      H3308   1.085       .  S
C3306      C3309   1.444       .  S
C3309      N3311   1.157       .  T
C3310      N3312   1.157       .  T
C3313      C3314   1.393       .  A
C3313      C3318   1.415       .  A
C3314      C3315   1.388       .  A
C3314      H3319   1.085       .  S
C3315      C3316   1.416       .  A
C3315      C3322   1.446       .  S
C3316      C3317   1.394       .  A
C3317      C3318   1.389       .  A
C3317      H3320   1.085       .  S
C3318      C3321   1.446       .  S
C3321      N3323   1.157       .  T
C3322      N3324   1.157       .  T
C3325      C3326   1.409       .  A
C3325      C3330   1.411       .  A
C3326      C3327   1.393       .  A
C3326      H3331   1.085       .  S
C3327      C3328   1.410       .  A
C3327      C3334   1.437       .  S
C3328      C3329   1.408       .  A
C3329      C3330   1.391       .  A
C3329      H3332   1.085       .  S
C3330      C3333   1.437       .  S
C3333      N3335   1.156       .  T
C3334      N3336   1.155       .  T
C3337      C3342   1.403       .  A
C3338      C3339   1.390       .  A
C3338      H3343   1.085       .  S
C3339      C3340   1.403       .  A
C3339      C3346   1.444       .  S
C3340      C3341   1.402       .  A
C3342      C3345   1.443       .  S
C3345      N3347   1.157       .  T
C3346      N3348   1.157       .  T
C3349      C3350   1.393       .  A
C3349      C3354   1.415       .  A
C3350      C3351   1.388       .  A
C3350      H3355   1.085       .  S
C3351      C3352   1.415       .  A
C3351      C3358   1.445       .  S
C3352      C3353   1.394       .  A
C3353      C3354   1.389       .  A
C3353      H3356   1.085       .  S
C3354      C3357   1.446       .  S
C3357      N3359   1.157       .  T
C3358      N3360   1.157       .  T
C3361      C3362   1.397       .  A
C3361      C3366   1.409       .  A
C3362      C3363   1.391       .  A
C3362      H3367   1.085       .  S
C3363      C3364   1.409       .  A
C3364      C3365   1.397       .  A
C3365      C3366   1.390       .  A
C3365      H3368   1.085       .  S
C3366      C3369   1.444       .  S
C3369      N3371   1.157       .  T
C3370      N3372   1.157       .  T
C3373      C3374   1.406       .  A
C3373      C3378   1.402       .  A
C3374      C3375   1.390       .  A
C3374      H3379   1.085       .  S
C3375      C3376   1.402       .  A
C3375      C3382   1.444       .  S
C3376      C3377   1.406       .  A
C3377      C3378   1.388       .  A
C3377      H3380   1.085       .  S
C3378      C3381   1.444       .  S
C3381      N3383   1.157       .  T
C3382      N3384   1.157       .  T
C3385      C3386   1.408       .  A
C3385      C3390   1.402       .  A
C3386      C3387   1.390       .  A
C3386      H3391   1.085       .  S
C3387      C3388   1.403       .  A
C3387      C3394   1.444       .  S
C3388      C3389   1.408       .  A
C3389      C3390   1.385       .  A
C3389      H3392   1.085       .  S
C3390      C3393   1.445       .  S
C3393      N3395   1.157       .  T
C3394      N3396   1.157       .  T
C3397      C3398   1.402       .  A
C3397      C3402   1.407       .  A
C3398      C3399   1.391       .  A
C3398      H3403   1.085       .  S
C3399      C3400   1.406       .  A
C3399      C3406   1.445       .  S
C3400      C3401   1.402       .  A
C3401      C3402   1.392       .  A
C3401      H3404   1.085       .  S
C3402      C3405   1.445       .  S
C3405      N3407   1.157       .  T
C3406      N3408   1.157       .  T
C3409      C3410   1.397       .  A
C3409      C3414   1.410       .  A
C3410      C3411   1.390       .  A
C3410      H3415   1.085       .  S
C3411      C3412   1.411       .  A
C3411      C3418   1.445       .  S
C3412      C3413   1.397       .  A
C3413      C3414   1.391       .  A
C3413      H3416   1.085       .  S
C3414      C3417   1.445       .  S
C3417      N3419   1.157       .  T
C3418      N3420   1.157   1_554  T
C3421      C3422   1.402       .  A
C3422      C3423   1.392       .  A
C3422      H3427   1.085       .  S
C3423      C3424   1.407       .  A
C3423      C3430   1.445       .  S
C3424      C3425   1.402       .  A
C3425      H3428   1.085       .  S
C3426      C3429   1.445       .  S
C3429      N3431   1.157       .  T
C3430      N3432   1.157       .  T
C3433      C3434   1.397       .  A
C3433      C3438   1.410       .  A
C3434      C3435   1.390       .  A
C3434      H3439   1.085       .  S
C3435      C3436   1.409       .  A
C3435      C3442   1.442       .  S
C3436      C3437   1.397       .  A
C3437      C3438   1.390       .  A
C3437      H3440   1.085       .  S
C3438      C3441   1.445       .  S
C3441      N3443   1.157       .  T
C3445      C3446   1.396       .  A
C3445      C3450   1.419       .  A
C3446      C3447   1.389       .  A
C3446      H3451   1.085       .  S
C3447      C3448   1.419       .  A
C3447      C3454   1.446       .  S
C3448      C3449   1.395       .  A
C3449      C3450   1.387       .  A
C3449      H3452   1.085       .  S
C3450      C3453   1.444       .  S
C3453      N3455   1.157       .  T
