geometry optimzed in LAMMPS
_audit_creation_date              2020-11-30 
_audit_creation_method            'lammps2cif' 
_symmetry_space_group_name_H-M    'P1' 
_symmetry_Int_Tables_number       1 
_symmetry_cell_setting            triclinic 
loop_ 
_symmetry_equiv_pos_as_xyz 
  x,y,z 
_cell_length_a                    49.87182277 
_cell_length_b                    49.802088346475216 
_cell_length_c                    38.08465741615611 
_cell_angle_alpha                 89.8746456590853 
_cell_angle_beta                  90.20028561319195 
_cell_angle_gamma                 119.74254843303197 
loop_ 
_atom_site_label 
_atom_site_type_symbol 
_atom_site_fract_x 
_atom_site_fract_y 
_atom_site_fract_z 
_atom_site_charge 
O1          O  0.15382541  0.27843000  0.02555476    -0.81300
C2          C  0.14195324  0.36691981  0.94839699     0.98100
O3          O  0.12641006  0.33820205  0.95360971    -0.70400
O4          O  0.11929813  0.28356569  0.96571696    -0.74000
Al5        Al  0.12595592  0.31704836  0.99518188     1.49000
C6          C  0.13676757  0.27724005  0.94801330     0.93300
O7          O  0.21946420  0.33766532  0.96952621    -0.80200
O8          O  0.22177046  0.37672277  0.02834412    -0.73800
Al9        Al  0.18466161  0.31069994  0.99743209     1.90100
O10         O  0.21291058  0.37687227  0.95677038    -0.72800
O11         O  0.17137004  0.37926248  0.03850921    -0.72700
O12         O  0.16494725  0.38369747  0.96754704    -0.78300
O13         O  0.12337845  0.34683747  0.02441011    -0.76500
O14         O  0.16708595  0.33441904  0.99672284    -1.12700
O15         O  0.12024857  0.29355430  0.03639546    -0.71900
C16         C  0.13100900  0.27584236  0.04255714     0.98900
C17         C  0.22624909  0.36142130  0.95134961     0.95300
Al18       Al  0.19066736  0.37555755  0.99770707     1.55600
O19         O  0.16524323  0.29011126  0.95487552    -0.76500
C20         C  0.14287027  0.36852019  0.04338233     0.99400
C21         C  0.22326843  0.35644177  0.04683369     0.94300
O22         O  0.20604386  0.32815483  0.04001852    -0.81800
O23         O  0.37484803  0.16179352  0.03620207    -0.81300
C24         C  0.27511791  0.14861727  0.95191284     0.98100
O25         O  0.27553985  0.12799046  0.97091788    -0.70400
O26         O  0.32245775  0.12057577  0.95507319    -0.74000
Al27       Al  0.30759023  0.12703894  0.99787877     1.49000
C28         C  0.35024603  0.12928597  0.94803510     0.93300
O29         O  0.37799187  0.20502667  0.95312813    -0.80200
O30         O  0.34008226  0.21321306  0.03956547    -0.73800
Al31       Al  0.37390924  0.18263651  0.99482428     1.90100
O32         O  0.34981676  0.22524806  0.96945700    -0.72800
O33         O  0.28349779  0.16801989  0.02653764    -0.72700
O34         O  0.29523166  0.17671904  0.95588604    -0.78300
O35         O  0.28937902  0.12869172  0.04097589    -0.76500
O36         O  0.33334849  0.16773656  0.99697320    -1.12700
O37         O  0.33406663  0.11708483  0.02463160    -0.71900
C38         C  0.35892671  0.13306477  0.04140881     0.98900
C39         C  0.37042027  0.22554686  0.95009873     0.95300
Al40       Al  0.31834916  0.19356995  0.99779875     1.55600
O41         O  0.37189363  0.15078158  0.96526383    -0.76500
C42         C  0.27607771  0.14437295  0.04521198     0.99400
C43         C  0.36905851  0.22602328  0.04296629     0.94300
O44         O  0.38452685  0.21794493  0.02384459    -0.81800
C45         C  0.50039626  0.02945409  0.24705972     0.02800
C46         C  0.47203015  0.00108839  0.24784706     0.02800
C47         C  0.47170775  0.47214556  0.24836632    -0.01200
C48         C  0.99992065  0.47134875  0.24668862     0.02800
C49         C  0.02851670  0.00103578  0.24721042     0.02800
C50         C  0.02793191  0.02920772  0.24701972     0.02800
C51         C  0.40980929  0.01813762  0.22403722     0.80800
N52         N  0.43654297  0.01724509  0.22344718    -0.77500
C53         C  0.44249449  0.00137637  0.24838415     0.83200
N54         N  0.42079619  0.48406917  0.27550550    -0.77500
C55         C  0.39321220  0.48335444  0.27564695     0.83300
N56         N  0.38885613  0.00260118  0.24965844    -0.79200
C57         C  0.08871138  0.48008734  0.22344067     0.80800
N58         N  0.11195753  0.99980059  0.24911580    -0.77500
C59         C  0.10750708  0.01773251  0.27255482     0.83200
N60         N  0.08043383  0.01808345  0.27188658    -0.77500
C61         C  0.05843151  0.00131212  0.24752208     0.83300
N62         N  0.06229872  0.48151709  0.22292937    -0.79200
C63         C  0.10649588  0.09121901  0.22153415     0.80800
N64         N  0.07952958  0.06394967  0.22234587    -0.77500
C65         C  0.05742617  0.05913075  0.24632493     0.83200
N66         N  0.06236748  0.08192315  0.26943838    -0.77500
C67         C  0.08895060  0.10958109  0.26836415     0.83300
N68         N  0.11081729  0.11384003  0.24447021    -0.79200
C69         C  0.01552938  0.10768735  0.22102136     0.80800
N70         N  0.01595856  0.08063667  0.22221212    -0.77500
C71         C  0.99844770  0.05837006  0.24603088     0.83200
N72         N  0.48303650  0.06511321  0.26931421    -0.77500
C73         C  0.48296701  0.09239128  0.26836321     0.83300
N74         N  0.99659810  0.11174040  0.24316055    -0.79200
C75         C  0.41036139  0.39227708  0.27127224     0.80800
N76         N  0.43734298  0.41955289  0.27123288    -0.77500
C77         C  0.44180935  0.44238942  0.24833555     0.83200
N78         N  0.41872107  0.43792230  0.22572530    -0.77500
C79         C  0.39121746  0.41109267  0.22649606     0.83300
N80         N  0.38742207  0.38844611  0.24911073    -0.79200
C81         C  0.48356964  0.39301566  0.22303002     0.80800
N82         N  0.48396271  0.42046953  0.22266384    -0.77500
C83         C  0.99983335  0.44151205  0.24665901     0.83200
N84         N  0.01512478  0.43554392  0.27230922    -0.77500
C85         C  0.01524991  0.40838650  0.27277756     0.83300
N86         N  0.99960185  0.38708603  0.24748666    -0.79200
O87         O  0.27874093  0.15417173  0.46848150    -0.81300
C88         C  0.36828566  0.14282045  0.54480601     0.98100
O89         O  0.33978311  0.12661970  0.53902277    -0.70400
O90         O  0.28444880  0.11731202  0.52781607    -0.74000
Al91       Al  0.31849984  0.12675009  0.49792482     1.49000
C92         C  0.27600972  0.13327745  0.54526646     0.93300
O93         O  0.33464101  0.21728545  0.53045959    -0.80200
O94         O  0.37600248  0.22461972  0.47093132    -0.73800
Al95       Al  0.30941320  0.18407166  0.49923688     1.90100
O96         O  0.37528606  0.21250497  0.54120405    -0.72800
O97         O  0.38072841  0.17587716  0.45633913    -0.72700
O98         O  0.38461729  0.16653195  0.52656501    -0.78300
O99         O  0.34909376  0.12691345  0.46748544    -0.76500
O100        O  0.33436682  0.16779688  0.49866011    -1.12700
O101        O  0.29495268  0.12152562  0.45711525    -0.71900
C102        C  0.27669342  0.13161743  0.45121564     0.98900
C103        C  0.35859264  0.22420102  0.54838216     0.95300
Al104      Al  0.37545732  0.19263794  0.49874341     1.55600
O105        O  0.28760501  0.16180951  0.53962405    -0.76500
C106        C  0.37064492  0.14769542  0.44949752     0.99400
C107        C  0.35576592  0.22661593  0.45312206     0.94300
O108        O  0.32752428  0.20847137  0.45876873    -0.81800
O109        O  0.17330460  0.29271998  0.53947885    -0.81300
C110        C  0.12998587  0.35579427  0.45333613     0.98100
O111        O  0.11422073  0.33272768  0.47275679    -0.70400
O112        O  0.12361320  0.28675217  0.45798533    -0.74000
Al113      Al  0.12402317  0.30699168  0.50036509     1.49000
C114        C  0.14008052  0.27470653  0.45118718     0.93300
O115        O  0.21048297  0.33801568  0.45683341    -0.80200
O116        O  0.20311953  0.37833228  0.54118224    -0.73800
Al117      Al  0.19013011  0.31641681  0.49828763     1.90100
O118        O  0.21511405  0.38266626  0.47070918    -0.72800
O119        O  0.14840838  0.37276016  0.52842704    -0.72700
O120        O  0.15881923  0.37199150  0.45758925    -0.78300
O121        O  0.11964569  0.32407908  0.54310627    -0.76500
O122        O  0.16480495  0.33207248  0.49931751    -1.12700
O123        O  0.12448028  0.27563695  0.52791664    -0.71900
C124        C  0.14518087  0.27406981  0.54517327     0.98900
C125        C  0.22307755  0.36679565  0.45224501     0.95300
Al126      Al  0.18010562  0.37294857  0.49946890     1.55600
O127        O  0.16446404  0.28227030  0.46853186    -0.76500
C128        C  0.12773466  0.35215960  0.54753299     0.99400
C129        C  0.22213084  0.36894117  0.54633139     0.94300
O130        O  0.22105884  0.34736954  0.52785076    -0.81800
C131        C  0.47110286  0.00055318  0.74848044     0.02800
C132        C  0.47257546  0.47330839  0.74828201     0.02800
C133        C  0.99907965  0.47290629  0.74836585     0.02800
C134        C  0.02812685  0.99900210  0.74706832     0.02800
C135        C  0.02806164  0.02730591  0.74772255     0.02800
C136        C  0.99981210  0.02762454  0.74830461     0.02800
C137        C  0.08880523  0.48145058  0.76866491     0.80800
N138        N  0.11009673  0.49831738  0.74391124    -0.77500
C139        C  0.10637515  0.01497150  0.72034978     0.83200
N140        N  0.07971878  0.01602173  0.72178685    -0.77500
C141        C  0.05716809  0.50080486  0.74761880     0.83300
N142        N  0.06241270  0.48294019  0.77046970    -0.79200
C143        C  0.39308190  0.48289289  0.72159963     0.80800
N144        N  0.42095734  0.48424303  0.72173504    -0.77500
C145        C  0.44245896  0.50133911  0.74651919     0.83200
N146        N  0.43476699  0.01599417  0.77283688    -0.77500
C147        C  0.40693218  0.01482217  0.77301534     0.83300
N148        N  0.38732742  0.49942241  0.74553396    -0.79200
C149        C  0.48280646  0.09202869  0.72684358     0.80800
N150        N  0.50304500  0.11499816  0.74809177    -0.77500
C151        C  0.02005069  0.10810661  0.77185260     0.83200
N152        N  0.01865991  0.08016720  0.77225720    -0.77500
C153        C  0.49968769  0.05908434  0.75033737     0.83300
N154        N  0.48162733  0.06422455  0.72764419    -0.79200
C155        C  0.08935345  0.10598645  0.72294294     0.80800
N156        N  0.11032375  0.11199132  0.74875187    -0.77500
C157        C  0.10546386  0.09076908  0.77378083     0.83200
N158        N  0.07902949  0.06300454  0.77318130    -0.77500
C159        C  0.05767595  0.05678630  0.74754036     0.83300
N160        N  0.06302602  0.07821744  0.72237823    -0.79200
C161        C  0.48840449  0.39719103  0.77815854     0.80800
N162        N  0.50244957  0.39023913  0.75217850    -0.77500
C163        C  0.01327468  0.40862558  0.72447815     0.83200
N164        N  0.01289302  0.43572309  0.72328044    -0.77500
C165        C  0.50145657  0.44406324  0.74963125     0.83300
N166        N  0.48793234  0.42416980  0.77678432    -0.79200
C167        C  0.41121648  0.39240270  0.72779579     0.80800
N168        N  0.38898433  0.38890402  0.75076027    -0.77500
C169        C  0.39317564  0.41200753  0.77285139     0.83200
N170        N  0.42039681  0.43903675  0.77211008    -0.77500
C171        C  0.44291211  0.44324306  0.74901857     0.83300
N172        N  0.43812445  0.41985376  0.72678921    -0.79200
C173        C  0.09803050  0.21142987  0.61094588    -0.27700
C174        C  0.11831648  0.20048347  0.61903538     0.05900
C175        C  0.14730333  0.21364631  0.60263220     0.25600
C176        C  0.15618194  0.23808414  0.57917577    -0.12200
C177        C  0.13608903  0.24935105  0.57129421    -0.26100
C178        C  0.10676797  0.23571113  0.58721527     0.36400
C179        C  0.10989605  0.17639866  0.64586677     0.06000
F180        F  0.16682742  0.20256077  0.60902964    -0.19900
H181        H  0.17855959  0.24781400  0.56663808     0.15800
F182        F  0.08684518  0.24625431  0.58048220    -0.23600
H183        H  0.07568638  0.20157168  0.62359559     0.17600
C184        C  0.12922617  0.18210276  0.67497136     0.25600
C185        C  0.12211698  0.15910946  0.69979996    -0.12100
C186        C  0.09544720  0.12996583  0.69634560    -0.26200
C187        C  0.07545761  0.12457258  0.66761146     0.36500
C188        C  0.08273322  0.14776877  0.64261083    -0.27800
F189        F  0.15486508  0.21013960  0.67959852    -0.19900
H190        H  0.13773277  0.16432692  0.72182156     0.15800
F191        F  0.04921147  0.09699162  0.66329022    -0.23600
H192        H  0.06747294  0.14323794  0.62035291     0.17600
C193        C  0.06992473  0.41549346  0.65393515    -0.27700
C194        C  0.06056056  0.38430166  0.64715318     0.05900
C195        C  0.03473449  0.36122359  0.66518484     0.25600
C196        C  0.01937666  0.36934018  0.69001463    -0.12200
C197        C  0.02895655  0.40054451  0.69692115    -0.26100
C198        C  0.05409345  0.42357245  0.67812623     0.36400
C199        C  0.07805531  0.37617704  0.62167688     0.06000
F200        F  0.02393757  0.33080125  0.65843152    -0.19900
H201        H  0.99974509  0.35111583  0.70368205     0.15800
F202        F  0.06404026  0.45394547  0.68384416    -0.23600
H203        H  0.08994204  0.43376940  0.64090812     0.17600
C204        C  0.08768966  0.39157057  0.58916264     0.25600
C205        C  0.10468504  0.38425551  0.56580188    -0.12100
C206        C  0.11175058  0.36094521  0.57382902    -0.26200
C207        C  0.10214382  0.34544475  0.60616355     0.36500
C208        C  0.08576731  0.35326404  0.62996201    -0.27800
F209        F  0.07979120  0.41295818  0.57936368    -0.19900
H210        H  0.11147318  0.39615752  0.54077991     0.15800
F211        F  0.10917604  0.32324065  0.61505523    -0.23600
H212        H  0.07934890  0.34154416  0.65508687     0.17600
C213        C  0.31385056  0.43297515  0.68245668    -0.27700
C214        C  0.32088428  0.42900461  0.64794990     0.05900
C215        C  0.35203181  0.44142415  0.63815594     0.25600
C216        C  0.37565047  0.45815774  0.66250190    -0.12200
C217        C  0.36849112  0.46302304  0.69667686    -0.26100
C218        C  0.33729968  0.44974944  0.70662168     0.36400
C219        C  0.29546900  0.41315730  0.62224029     0.06000
F220        F  0.35963581  0.43867287  0.60469450    -0.19900
H221        H  0.39949386  0.46827511  0.65428244     0.15800
F222        F  0.32936456  0.45284643  0.73982128    -0.23600
H223        H  0.29002884  0.42322706  0.69063777     0.17600
C224        C  0.29258847  0.38833303  0.60201759     0.25600
C225        C  0.26844824  0.37385484  0.57781342    -0.12100
C226        C  0.24662023  0.38372843  0.57340580    -0.26200
C227        C  0.24922384  0.40821851  0.59430432     0.36500
C228        C  0.27342516  0.42269989  0.61841224    -0.27800
F229        F  0.31269839  0.37764054  0.60617227    -0.19900
H230        H  0.26696313  0.35492115  0.56240049     0.15800
F231        F  0.22864836  0.41845180  0.59140229    -0.23600
H232        H  0.27519131  0.44172690  0.63390286     0.17600
C233        C  0.42444859  0.08201219  0.65626538    -0.27700
C234        C  0.42900255  0.11212847  0.65410128     0.05900
C235        C  0.44960798  0.13479752  0.67748931     0.25600
C236        C  0.46658066  0.12783722  0.70120624    -0.12200
C237        C  0.46313546  0.09804207  0.70252917    -0.26100
C238        C  0.44123934  0.07488618  0.68028826     0.36400
C239        C  0.41316649  0.12003641  0.62654506     0.06000
F240        F  0.45330410  0.16371167  0.67750527    -0.19900
H241        H  0.48270750  0.14609023  0.71834688     0.15800
F242        F  0.43625857  0.04552610  0.68119326    -0.23600
H243        H  0.40844828  0.06415107  0.63862534     0.17600
C244        C  0.43007185  0.14575841  0.60467097     0.25600
C245        C  0.41517602  0.15288107  0.57838124    -0.12100
C246        C  0.38319927  0.13440403  0.57298061    -0.26200
C247        C  0.36627013  0.10841970  0.59467168     0.36500
C248        C  0.38124207  0.10138526  0.62120190    -0.27800
F249        F  0.46118944  0.16352783  0.60796121    -0.19900
H250        H  0.42890981  0.17288329  0.56199883     0.15800
F251        F  0.33537154  0.08980140  0.59036850    -0.23600
H252        H  0.36786183  0.08140559  0.63775889     0.17600
C253        C  0.16401095  0.03496427  0.64720037    -0.27700
C254        C  0.17759658  0.06733130  0.64536614     0.05900
C255        C  0.16633988  0.08214617  0.66760386     0.25600
C256        C  0.14227287  0.06483043  0.69109611    -0.12200
C257        C  0.12986196  0.03275504  0.69371397    -0.26100
C258        C  0.14098793  0.01794125  0.67169254     0.36400
C259        C  0.20361518  0.08520496  0.62063744     0.06000
F260        F  0.17939864  0.11340347  0.66780052    -0.19900
H261        H  0.13416851  0.07660475  0.70826466     0.15800
F262        F  0.12942623  0.48831613  0.67654518    -0.23600
H263        H  0.17136334  0.02271578  0.62977929     0.17600
C264        C  0.22710560  0.07755685  0.61610208     0.25600
C265        C  0.25060634  0.09345270  0.59168682    -0.12100
C266        C  0.25184311  0.11788168  0.57207174    -0.26200
C267        C  0.22901376  0.12619978  0.57710096     0.36500
C268        C  0.20492201  0.10970410  0.60080377    -0.27800
F269        F  0.22775729  0.05506465  0.63565440    -0.19900
H270        H  0.26814563  0.08685661  0.58834246     0.15800
F271        F  0.22919852  0.14931826  0.55796459    -0.23600
H272        H  0.18689297  0.11570899  0.60302624     0.17600
C273        C  0.40477285  0.28530541  0.61736747    -0.27700
C274        C  0.38217372  0.29127532  0.63134512     0.05900
C275        C  0.35171878  0.27428434  0.61844697     0.25600
C276        C  0.34428681  0.25213521  0.59216552    -0.12200
C277        C  0.36693859  0.24651325  0.57776785    -0.26100
C278        C  0.39734821  0.26322711  0.59084391     0.36400
C279        C  0.39086659  0.31645272  0.65760378     0.06000
F280        F  0.32934431  0.28009440  0.62985952    -0.19900
H281        H  0.32071508  0.23968778  0.58260091     0.15800
F282        F  0.42019519  0.25921060  0.57711732    -0.23600
H283        H  0.42838770  0.29807889  0.62672782     0.17600
C284        C  0.37263934  0.31215729  0.68747844     0.25600
C285        C  0.37976115  0.33682127  0.71019349    -0.12100
C286        C  0.40547474  0.36629063  0.70415913    -0.26200
C287        C  0.42461383  0.37018219  0.67523023     0.36500
C288        C  0.41722760  0.34554006  0.65222077    -0.27800
F289        F  0.34808703  0.28403470  0.69505895    -0.19900
H290        H  0.36491706  0.33271098  0.73262172     0.15800
F291        F  0.44993312  0.39792626  0.66838706    -0.23600
H292        H  0.43173496  0.34949110  0.62951072     0.17600
C293        C  0.06738267  0.41700783  0.35022903    -0.27700
C294        C  0.06553980  0.38795802  0.35025030     0.05900
C295        C  0.04681337  0.36578612  0.32528339     0.25600
C296        C  0.03045346  0.37265169  0.30063173    -0.12200
C297        C  0.03235510  0.40177585  0.30015340    -0.26100
C298        C  0.05094029  0.42396752  0.32547417     0.36400
C299        C  0.08246175  0.38035611  0.37671895     0.06000
F300        F  0.04481808  0.33759935  0.32419837    -0.19900
H301        H  0.01639756  0.35499577  0.28169408     0.15800
F302        F  0.05341933  0.45235794  0.32644398    -0.23600
H303        H  0.08133103  0.43421367  0.36965584     0.17600
C304        C  0.11427337  0.39980454  0.38250317     0.25600
C305        C  0.12983739  0.39163383  0.40717221    -0.12100
C306        C  0.11392343  0.36392845  0.42627383    -0.26200
C307        C  0.08211883  0.34433428  0.41991989     0.36500
C308        C  0.06664095  0.35274777  0.39575228    -0.27800
F309        F  0.13040205  0.42627194  0.36375087    -0.19900
H310        H  0.15430165  0.40702226  0.41136608     0.15800
F311        F  0.06577074  0.31685996  0.43682088    -0.23600
H312        H  0.04209236  0.33754661  0.39185616     0.17600
C313        C  0.37502820  0.31381854  0.31523726    -0.27700
C314        C  0.39204570  0.32092565  0.34653413     0.05900
C315        C  0.41686439  0.35102342  0.35168306     0.25600
C316        C  0.42348706  0.37394790  0.32649975    -0.12200
C317        C  0.40538215  0.36724002  0.29594005    -0.26100
C318        C  0.38157523  0.33661782  0.29008821     0.36400
C319        C  0.38297667  0.29700850  0.37401798     0.06000
F320        F  0.43369118  0.35861930  0.38179180    -0.19900
H321        H  0.44207030  0.39721743  0.33157423     0.15800
F322        F  0.36445650  0.32857560  0.26017366    -0.23600
H323        H  0.35632486  0.29053434  0.31045898     0.17600
C324        C  0.35241489  0.28112822  0.38634450     0.25600
C325        C  0.34373447  0.25819201  0.41189622    -0.12100
C326        C  0.36535849  0.25074898  0.42577221    -0.26200
C327        C  0.39604950  0.26678805  0.41345358     0.36500
C328        C  0.40467109  0.28970001  0.38780299    -0.27800
F329        F  0.33109014  0.28827401  0.37419424    -0.19900
H330        H  0.32009086  0.24647729  0.42110648     0.15800
F331        F  0.41766008  0.26006388  0.42564839    -0.23600
H332        H  0.42823775  0.30149558  0.37833069     0.17600
C333        C  0.44662997  0.13376136  0.31540224    -0.27700
C334        C  0.42949527  0.11265050  0.34190545     0.05900
C335        C  0.42843496  0.08385288  0.34281011     0.25600
C336        C  0.44531852  0.07707675  0.31849296    -0.12200
C337        C  0.46364804  0.09887064  0.29288528    -0.26100
C338        C  0.46359881  0.12720264  0.29132892     0.36400
C339        C  0.41397881  0.12160807  0.36904667     0.06000
F340        F  0.41214608  0.06275240  0.36804261    -0.19900
H341        H  0.44448636  0.05497144  0.32021772     0.15800
F342        F  0.96773386  0.14143712  0.25919379    -0.23600
H343        H  0.44716090  0.15572307  0.31351164     0.17600
C344        C  0.43006114  0.15062449  0.38575096     0.25600
C345        C  0.41554384  0.15914704  0.41115615    -0.12100
C346        C  0.38487260  0.13885769  0.42094843    -0.26200
C347        C  0.36860985  0.10993136  0.40406280     0.36500
C348        C  0.38306098  0.10151524  0.37829781    -0.27800
F349        F  0.46021253  0.17042321  0.37837013    -0.19900
H350        H  0.42866434  0.18141260  0.42392080     0.15800
F351        F  0.33861655  0.08998859  0.41199582    -0.23600
H352        H  0.36997970  0.07934491  0.36534154     0.17600
C353        C  0.09307460  0.21369129  0.38240812    -0.27700
C354        C  0.11462233  0.20530014  0.37080824     0.05900
C355        C  0.14441775  0.22004236  0.38563029     0.25600
C356        C  0.15240656  0.24266126  0.41137029    -0.12200
C357        C  0.13097132  0.25117954  0.42306338    -0.26100
C358        C  0.10107835  0.23640215  0.40829308     0.36400
C359        C  0.10633207  0.18139240  0.34323163     0.06000
F360        F  0.16568308  0.21205520  0.37584866    -0.19900
H361        H  0.17552999  0.25347328  0.42226695     0.15800
F362        F  0.07939766  0.24341733  0.41919447    -0.23600
H363        H  0.07006419  0.20280076  0.37120814     0.17600
C364        C  0.07948563  0.15224662  0.34571277     0.25600
C365        C  0.07357750  0.12924292  0.32087696    -0.12100
C366        C  0.09432493  0.13477584  0.29318922    -0.26200
C367        C  0.12052121  0.16447998  0.29004350     0.36500
C368        C  0.12625980  0.18737392  0.31473618    -0.27800
F369        F  0.05966986  0.14552383  0.37294792    -0.19900
H370        H  0.05307225  0.10681215  0.32390617     0.15800
F371        F  0.14091644  0.17161692  0.26334357    -0.23600
H372        H  0.14666194  0.20989925  0.31177599     0.17600
C373        C  0.15120085  0.06942671  0.35021890    -0.27700
C374        C  0.17978139  0.07042689  0.34759402     0.05900
C375        C  0.18465218  0.05508987  0.31950464     0.25600
C376        C  0.16112282  0.03828686  0.29539815    -0.12200
C377        C  0.13221785  0.03659856  0.29827228    -0.26100
C378        C  0.12766235  0.05290122  0.32572010     0.36400
C379        C  0.20413534  0.08636055  0.37464822     0.06000
F380        F  0.21237125  0.05659634  0.31508312    -0.19900
H381        H  0.16573537  0.02658623  0.27432054     0.15800
F382        F  0.10043234  0.05254829  0.32941762    -0.23600
H383        H  0.14681562  0.08089584  0.37174475     0.17600
C384        C  0.21294396  0.11647922  0.38611905     0.25600
C385        C  0.23661073  0.13117187  0.41096020    -0.12100
C386        C  0.25202903  0.11621721  0.42457072    -0.26200
C387        C  0.24285540  0.08594041  0.41338282     0.36500
C388        C  0.21906363  0.07122432  0.38895331    -0.27800
F389        F  0.19930004  0.13202252  0.37268716    -0.19900
H390        H  0.24312354  0.15441702  0.41924435     0.15800
F391        F  0.25631034  0.07013093  0.42659376    -0.23600
H392        H  0.21213795  0.04772791  0.38131060     0.17600
C393        C  0.28445555  0.42895004  0.39462570    -0.27700
C394        C  0.29650891  0.41266541  0.37675080     0.05900
C395        C  0.28451388  0.38105204  0.38424861     0.25600
C396        C  0.26046286  0.36612723  0.40856424    -0.12200
C397        C  0.24799538  0.38241801  0.42585978    -0.26100
C398        C  0.26035970  0.41411010  0.41851134     0.36400
C399        C  0.32083761  0.42906320  0.34980481     0.06000
F400        F  0.29541680  0.36439321  0.36751102    -0.19900
H401        H  0.25160641  0.34179284  0.41384407     0.15800
F402        F  0.24914589  0.43097061  0.43414248    -0.23600
H403        H  0.29371996  0.45344210  0.39000958     0.17600
C404        C  0.31774782  0.44852609  0.32530540     0.25600
C405        C  0.34138351  0.46593822  0.30173077    -0.12100
C406        C  0.36865027  0.46418008  0.30132911    -0.26200
C407        C  0.37142177  0.44384772  0.32505438     0.36500
C408        C  0.34774732  0.42662233  0.34914622    -0.27800
F409        F  0.29160740  0.45055793  0.32383303    -0.19900
H410        H  0.34355595  0.99079003  0.28923270     0.15800
F411        F  0.39686995  0.44057592  0.32522126    -0.23600
H412        H  0.35076956  0.41188597  0.36779795     0.17600
C413        C  0.40969279  0.06287122  0.85202798    -0.27700
C414        C  0.38179650  0.06309314  0.84786352     0.05900
C415        C  0.36269453  0.04780608  0.81910717     0.25600
C416        C  0.37123055  0.03234628  0.79517939    -0.12200
C417        C  0.39907642  0.03183036  0.79916402    -0.26100
C418        C  0.41835146  0.04736616  0.82796483     0.36400
C419        C  0.37318303  0.08011629  0.87288224     0.06000
F420        F  0.33619110  0.04860064  0.81350254    -0.19900
H421        H  0.35592221  0.02098290  0.77319880     0.15800
F422        F  0.44534465  0.04748674  0.83314115    -0.23600
H423        H  0.42471550  0.07462293  0.87411548     0.17600
C424        C  0.34408693  0.06568548  0.88922760     0.25600
C425        C  0.33636932  0.08220784  0.91273610    -0.12100
C426        C  0.35760898  0.11318158  0.92063185    -0.26200
C427        C  0.38647528  0.12775357  0.90377371     0.36500
C428        C  0.39413990  0.11125412  0.88017756    -0.27800
F429        F  0.32355732  0.03536457  0.88341016    -0.19900
H430        H  0.31412227  0.07044197  0.92566976     0.15800
F431        F  0.40716724  0.15798336  0.90982466    -0.23600
H432        H  0.41644540  0.12285421  0.86736478     0.17600
C433        C  0.36807717  0.04620781  0.16366020    -0.27700
C434        C  0.39262448  0.06937102  0.14437366     0.05900
C435        C  0.42294224  0.07616053  0.15201975     0.25600
C436        C  0.42836551  0.05945751  0.17796722    -0.12200
C437        C  0.40372309  0.03596559  0.19704463    -0.26100
C438        C  0.37344504  0.02970940  0.18978544     0.36400
C439        C  0.38607169  0.08606132  0.11638412     0.06000
F440        F  0.44720958  0.09836359  0.13382110    -0.19900
H441        H  0.45193481  0.06500647  0.18317958     0.15800
F442        F  0.34885361  0.00722424  0.20729539    -0.23600
H443        H  0.34457728  0.04091344  0.15848608     0.17600
C444        C  0.36396712  0.06950846  0.09032193     0.25600
C445        C  0.35563290  0.08505469  0.06594964    -0.12100
C446        C  0.36933223  0.11745457  0.06674829    -0.26200
C447        C  0.39261084  0.13416417  0.09178683     0.36500
C448        C  0.40070604  0.11849977  0.11648482    -0.27800
F449        F  0.35047695  0.03823940  0.08838329    -0.19900
H450        H  0.33827637  0.07159558  0.04641616     0.15800
F451        F  0.40692561  0.16549688  0.09313600    -0.23600
H452        H  0.41782682  0.13168145  0.13634876     0.17600
C453        C  0.16998171  0.13637218  0.83812004    -0.27700
C454        C  0.17733783  0.11402680  0.84972363     0.05900
C455        C  0.15984773  0.08346047  0.83719088     0.25600
C456        C  0.13573711  0.07568157  0.81328787    -0.12200
C457        C  0.12904660  0.09830266  0.80111722    -0.26100
C458        C  0.14627844  0.12873607  0.81385977     0.36400
C459        C  0.20283741  0.12272350  0.87531814     0.06000
F460        F  0.16670470  0.06135881  0.84711081    -0.19900
H461        H  0.12296330  0.05221821  0.80339415     0.15800
F462        F  0.13992822  0.15104838  0.80324166    -0.23600
H463        H  0.18251050  0.15982290  0.84804775     0.17600
C464        C  0.23157220  0.14983552  0.87087604     0.25600
C465        C  0.25495020  0.15827231  0.89595759    -0.12100
C466        C  0.25034090  0.13959277  0.92551091    -0.26200
C467        C  0.22174970  0.11230937  0.92970501     0.36500
C468        C  0.19823513  0.10420455  0.90500354    -0.27800
F469        F  0.23730286  0.16785359  0.84195855    -0.19900
H470        H  0.27685342  0.17920724  0.89200299     0.15800
F471        F  0.21610255  0.09385305  0.95820271    -0.23600
H472        H  0.17615353  0.08361280  0.90942501     0.17600
C473        C  0.43146962  0.34941473  0.84897745    -0.27700
C474        C  0.44112695  0.32793804  0.85687175     0.05900
C475        C  0.46773688  0.33094512  0.84054160     0.25600
C476        C  0.48342679  0.35410323  0.81569704    -0.12200
C477        C  0.47318619  0.37493978  0.80694903    -0.26100
C478        C  0.44746830  0.37291221  0.82447831     0.36400
C479        C  0.42260837  0.30169164  0.88078456     0.06000
F480        F  0.47857058  0.31145817  0.84850050    -0.19900
H481        H  0.50353197  0.35557132  0.80304565     0.15800
F482        F  0.43679174  0.39255531  0.81676796    -0.23600
H483        H  0.41085467  0.34737603  0.86088080     0.17600
C484        C  0.41167641  0.30626503  0.91296200     0.25600
C485        C  0.39374801  0.28111522  0.93478997    -0.12100
C486        C  0.38706287  0.25119211  0.92534359    -0.26200
C487        C  0.39799868  0.24656256  0.89332109     0.36500
C488        C  0.41525409  0.27157033  0.87107226    -0.27800
F489        F  0.41918226  0.33510292  0.92386143    -0.19900
H490        H  0.38596772  0.28517467  0.95973420     0.15800
F491        F  0.39161006  0.21783213  0.88332705    -0.23600
H492        H  0.42276334  0.26734159  0.84606239     0.17600
C493        C  0.20859918  0.13978710  0.09556422    -0.27700
C494        C  0.20267167  0.11668126  0.12037943     0.05900
C495        C  0.22029965  0.10171282  0.11962479     0.25600
C496        C  0.24419610  0.11070603  0.09514797    -0.12200
C497        C  0.25080854  0.13468504  0.07108706    -0.26100
C498        C  0.23234866  0.14882456  0.07129360     0.36400
C499        C  0.17869363  0.10945098  0.14736977     0.06000
F500        F  0.21509589  0.07914457  0.14316865    -0.19900
H501        H  0.25774323  0.09915899  0.09531120     0.15800
F502        F  0.23690471  0.17129163  0.04788328    -0.23600
H503        H  0.19476789  0.15103634  0.09505439     0.17600
C504        C  0.17855153  0.13353484  0.16637894     0.25600
C505        C  0.15507926  0.12723858  0.19027619    -0.12100
C506        C  0.13110669  0.09680939  0.19593075    -0.26200
C507        C  0.13145448  0.07254828  0.17724043     0.36500
C508        C  0.15513227  0.07890569  0.15325528    -0.27800
F509        F  0.20131663  0.16329600  0.16201974    -0.19900
H510        H  0.15563939  0.14645890  0.20415335     0.15800
F511        F  0.10909206  0.04273838  0.18201790    -0.23600
H512        H  0.15468588  0.06002876  0.13870167     0.17600
C513        C  0.43293951  0.29392752  0.09210807    -0.27700
C514        C  0.41643717  0.29859661  0.11884872     0.05900
C515        C  0.38411056  0.28006568  0.11980283     0.25600
C516        C  0.36875670  0.25656448  0.09500871    -0.12200
C517        C  0.38536310  0.25126366  0.06878326    -0.26100
C518        C  0.41766747  0.27067969  0.06717813     0.36400
C519        C  0.43327176  0.32258668  0.14578885     0.06000
F520        F  0.36748393  0.28407362  0.14531853    -0.19900
H521        H  0.34390000  0.24224631  0.09664034     0.15800
F522        F  0.43459066  0.26765046  0.04124063    -0.23600
H523        H  0.45777725  0.30848611  0.09044047     0.17600
C524        C  0.45776480  0.32304277  0.16465385     0.25600
C525        C  0.47387472  0.34595716  0.18969772    -0.12100
C526        C  0.46608614  0.36901545  0.19628894    -0.26200
C527        C  0.44142229  0.36842678  0.17747904     0.36500
C528        C  0.42519077  0.34535011  0.15253017    -0.27800
F529        F  0.46576045  0.30098215  0.15929768    -0.19900
H530        H  0.49267524  0.34573383  0.20379091     0.15800
F531        F  0.43258823  0.38974368  0.18350504    -0.23600
H532        H  0.40644146  0.34542704  0.13815442     0.17600
C533        C  0.07264402  0.15289895  0.84842974    -0.27700
C534        C  0.07729183  0.18268804  0.84197573     0.05900
C535        C  0.06485828  0.18806599  0.81142843     0.25600
C536        C  0.04695100  0.16379948  0.78861057    -0.12200
C537        C  0.04099632  0.13357023  0.79562998    -0.26100
C538        C  0.05460800  0.12844023  0.82553260     0.36400
C539        C  0.09334392  0.20762210  0.86814075     0.06000
F540        F  0.06984567  0.21682867  0.80377419    -0.19900
H541        H  0.03745770  0.16876690  0.76549699     0.15800
F542        F  0.04960373  0.09974188  0.83349403    -0.23600
H543        H  0.08208587  0.14836695  0.87189728     0.17600
C544        C  0.07835858  0.22268172  0.88230962     0.25600
C545        C  0.09302226  0.24563883  0.90760554    -0.12100
C546        C  0.12292288  0.25413295  0.91947438    -0.26200
C547        C  0.13817111  0.23937491  0.90489896     0.36500
C548        C  0.12331083  0.21612650  0.87960779    -0.27800
F549        F  0.04906123  0.21446294  0.87254515    -0.19900
H550        H  0.08067846  0.25656706  0.91823281     0.15800
F551        F  0.16698417  0.24673666  0.91567385    -0.23600
H552        H  0.13517421  0.20472375  0.86892637     0.17600
C553        C  0.05299105  0.18390077  0.17129646    -0.27700
C554        C  0.07016698  0.17895490  0.14572572     0.05900
C555        C  0.07109174  0.15117537  0.14631797     0.25600
C556        C  0.05371446  0.12820545  0.17115073    -0.12200
C557        C  0.03528417  0.13263595  0.19586433    -0.26100
C558        C  0.03579123  0.16123299  0.19601272     0.36400
C559        C  0.08587058  0.20272605  0.11814001     0.06000
F560        F  0.08778253  0.14575809  0.12214710    -0.19900
H561        H  0.05430311  0.10676389  0.17059061     0.15800
F562        F  0.01961384  0.16763163  0.21982822    -0.23600
H563        H  0.05264771  0.20547870  0.17192795     0.17600
C564        C  0.06937710  0.21440601  0.09962642     0.25600
C565        C  0.08439232  0.23847375  0.07560568    -0.12100
C566        C  0.11601411  0.25104469  0.06897715    -0.26200
C567        C  0.13251142  0.23899998  0.08689785     0.36500
C568        C  0.11750269  0.21508538  0.11139512    -0.27800
F569        F  0.03853406  0.20221376  0.10445331    -0.19900
H570        H  0.07109192  0.24694475  0.06167236     0.15800
F571        F  0.16325055  0.25090261  0.08151627    -0.23600
H572        H  0.13070366  0.20668976  0.12565917     0.17600
C573        C  0.14435302  0.42594787  0.88389135    -0.27700
C574        C  0.11465755  0.41024406  0.86918028     0.05900
C575        C  0.09417907  0.37971655  0.87970344     0.25600
C576        C  0.10333026  0.36543038  0.90502333    -0.12200
C577        C  0.13293358  0.38142866  0.92027700    -0.26100
C578        C  0.15351536  0.41180357  0.90908046     0.36400
C579        C  0.10608120  0.42603754  0.84223065     0.06000
F580        F  0.06565443  0.36357226  0.86505266    -0.19900
H581        H  0.08711560  0.34197900  0.91299407     0.15800
F582        F  0.18265342  0.42788941  0.92216318    -0.23600
H583        H  0.16051136  0.44943559  0.87594199     0.17600
C584        C  0.07984640  0.42936678  0.84590057     0.25600
C585        C  0.07399625  0.44692210  0.82154187    -0.12100
C586        C  0.09430600  0.46160862  0.79332622    -0.26200
C587        C  0.12013238  0.45747354  0.78940473     0.36500
C588        C  0.12580663  0.43989387  0.81362116    -0.27800
F589        F  0.06072856  0.41691061  0.87383453    -0.19900
H590        H  0.05390139  0.44956044  0.82529800     0.15800
F591        F  0.14023274  0.47053557  0.76241728    -0.23600
H592        H  0.14603426  0.43739619  0.81028256     0.17600
C593        C  0.28161355  0.40479782  0.87639068    -0.27700
C594        C  0.29629087  0.38719633  0.87218826     0.05900
C595        C  0.28801347  0.36154138  0.89399256     0.25600
C596        C  0.26536045  0.35356021  0.91952034    -0.12200
C597        C  0.25028448  0.37085417  0.92385276    -0.26100
C598        C  0.25857754  0.39663398  0.90183079     0.36400
C599        C  0.32009901  0.39516015  0.84499796     0.06000
F600        F  0.30221917  0.34441833  0.89089044    -0.19900
H601        H  0.25966520  0.33367904  0.93598485     0.15800
F602        F  0.24439371  0.41379377  0.90458078    -0.23600
H603        H  0.28771901  0.42459432  0.85959836     0.17600
C604        C  0.31567756  0.37378895  0.81855799     0.25600
C605        C  0.33932711  0.37983915  0.79497822    -0.12100
C606        C  0.36803948  0.40725335  0.79731182    -0.26200
C607        C  0.37209451  0.42913982  0.82332085     0.36500
C608        C  0.34817344  0.42308029  0.84680478    -0.27800
F609        F  0.28851143  0.34683212  0.81582510    -0.19900
H610        H  0.33513967  0.36264948  0.77511539     0.15800
F611        F  0.39929964  0.45591258  0.82689260    -0.23600
H612        H  0.35192112  0.43972169  0.86721895     0.17600
C613        C  0.09170824  0.38477660  0.10332942    -0.27700
C614        C  0.11396521  0.40997301  0.12265733     0.05900
C615        C  0.14540260  0.42097160  0.11633154     0.25600
C616        C  0.15446942  0.40715110  0.09078861    -0.12200
C617        C  0.13239086  0.38199696  0.07108617    -0.26100
C618        C  0.10073459  0.37068667  0.07782428     0.36400
C619        C  0.10469932  0.42533831  0.14907898     0.06000
F620        F  0.16736764  0.44571792  0.13423707    -0.19900
H621        H  0.17893169  0.41645898  0.08622175     0.15800
F622        F  0.07849116  0.34618707  0.05984919    -0.23600
H623        H  0.06734699  0.37598628  0.10812410     0.17600
C624        C  0.08796846  0.44000280  0.13922528     0.25600
C625        C  0.08203054  0.45712888  0.16387130    -0.12100
C626        C  0.09312447  0.46019111  0.19840933    -0.26200
C627        C  0.10910045  0.44476262  0.20844937     0.36500
C628        C  0.11473214  0.42740557  0.18391712    -0.27800
F629        F  0.07887271  0.43913742  0.10541045    -0.19900
H630        H  0.06980674  0.46898088  0.15564102     0.15800
F631        F  0.12799066  0.95576581  0.23988141    -0.23600
H632        H  0.12746987  0.41601088  0.19189261     0.17600
C633        C  0.28818643  0.40572327  0.11068982    -0.27700
C634        C  0.29160001  0.38311279  0.12900743     0.05900
C635        C  0.27127124  0.35172853  0.12154127     0.25600
C636        C  0.24877442  0.34330007  0.09537678    -0.12200
C637        C  0.24595421  0.36590392  0.07611315    -0.26100
C638        C  0.26560864  0.39733685  0.08457973     0.36400
C639        C  0.31697571  0.39228494  0.15493227     0.06000
F640        F  0.27396789  0.32917682  0.13850447    -0.19900
H641        H  0.23395193  0.31896341  0.08971786     0.15800
F642        F  0.26341450  0.42010427  0.06745234    -0.23600
H643        H  0.30322070  0.43000277  0.11648252     0.17600
C644        C  0.34774784  0.41351628  0.14590714     0.25600
C645        C  0.37174974  0.42042480  0.16973067    -0.12100
C646        C  0.36556645  0.40600415  0.20273849    -0.26200
C647        C  0.33465271  0.38551271  0.21215661     0.36500
C648        C  0.31069536  0.37886454  0.18847683    -0.27800
F649        F  0.35477770  0.42640533  0.11342214    -0.19900
H650        H  0.39531012  0.43616492  0.16181426     0.15800
F651        F  0.32748158  0.37189932  0.24428924    -0.23600
H652        H  0.28713751  0.36293008  0.19624370     0.17600
O653        O  0.15264910  0.77853405  0.02696557    -0.81300
C654        C  0.14220573  0.86674845  0.94951413     0.98100
O655        O  0.12621996  0.83830445  0.95617076    -0.70400
O656        O  0.11861101  0.78364076  0.96979793    -0.74000
Al657      Al  0.12646588  0.81832270  0.99825019     1.49000
C658        C  0.13580813  0.77803436  0.95050039     0.93300
O659        O  0.21955974  0.83705205  0.97151399    -0.80200
O660        O  0.22256300  0.87675956  0.02898390    -0.73800
Al661      Al  0.18418491  0.81073958  0.99899888     1.90100
O662        O  0.21342857  0.87620173  0.95747371    -0.72800
O663        O  0.17331919  0.88169057  0.03882456    -0.72700
O664        O  0.16596570  0.88396224  0.96749747    -0.78300
O665        O  0.12502747  0.84927142  0.02621285    -0.76500
O666        O  0.16750454  0.83518781  0.99849512    -1.12700
O667        O  0.12176620  0.79628004  0.04053545    -0.71900
C668        C  0.13114781  0.77728245  0.04558387     0.98900
C669        C  0.22697587  0.86083463  0.95318632     0.95300
Al670      Al  0.19171419  0.87616329  0.99823831     1.55600
O671        O  0.16445868  0.79109923  0.95632833    -0.76500
C672        C  0.14497931  0.87160046  0.04400787     0.99400
C673        C  0.22393076  0.85627438  0.04733154     0.94300
O674        O  0.20583604  0.82794180  0.04135046    -0.81800
O675        O  0.37495780  0.65938177  0.03726636    -0.81300
C676        C  0.27773621  0.64841734  0.95023360     0.98100
O677        O  0.27778431  0.62752039  0.96905223    -0.70400
O678        O  0.32479323  0.61989073  0.95486384    -0.74000
Al679      Al  0.30882931  0.62588729  0.99701779     1.49000
C680        C  0.35274782  0.62902340  0.94831129     0.93300
O681        O  0.38112973  0.70527396  0.95545824    -0.80200
O682        O  0.34028277  0.71134523  0.04036080    -0.73800
Al683      Al  0.37537207  0.68145699  0.99646407     1.90100
O684        O  0.35210756  0.72480298  0.97062324    -0.72800
O685        O  0.28408159  0.66654762  0.02529230    -0.72700
O686        O  0.29778700  0.67645883  0.95483165    -0.78300
O687        O  0.28961071  0.62698963  0.03949469    -0.76500
O688        O  0.33476002  0.66661700  0.99711675    -1.12700
O689        O  0.33412418  0.61514783  0.02458365    -0.71900
C690        C  0.35853375  0.63067645  0.04216712     0.98900
C691        C  0.37353657  0.72576037  0.95221600     0.95300
Al692      Al  0.31978508  0.69252548  0.99768265     1.55600
O693        O  0.37409063  0.65045432  0.96594127    -0.76500
C694        C  0.27659065  0.64288781  0.04399640     0.99400
C695        C  0.36904365  0.72364486  0.04534756     0.94300
O696        O  0.38505815  0.71581632  0.02680886    -0.81800
C697        C  0.50042793  0.52903901  0.24868989     0.02800
C698        C  0.47200611  0.50071966  0.24959224     0.02800
C699        C  0.47180664  0.97249431  0.24810197    -0.01200
C700        C  0.00052222  0.97238384  0.24684253     0.02800
C701        C  0.02833095  0.49968470  0.24672748     0.02800
C702        C  0.02850647  0.52823958  0.24693521     0.02800
C703        C  0.40930149  0.51715439  0.22677057     0.80800
N704        N  0.43647454  0.51717879  0.22656173    -0.77500
C705        C  0.44244828  0.50093314  0.25092122     0.83200
N706        N  0.42141654  0.98606879  0.27397348    -0.77500
C707        C  0.39436306  0.98637752  0.27465298     0.83300
N708        N  0.38785171  0.50011680  0.25128663    -0.79200
C709        C  0.09008341  0.98279860  0.22488860     0.80800
N710        N  0.11119789  0.49736720  0.24694851    -0.77500
C711        C  0.10743752  0.51586273  0.27020634     0.83200
N712        N  0.08044783  0.51634443  0.27018719    -0.77500
C713        C  0.05787000  0.49929532  0.24653965     0.83300
N714        N  0.06355889  0.98402322  0.22387153    -0.79200
C715        C  0.10745087  0.58990077  0.22127504     0.80800
N716        N  0.08053195  0.56256062  0.22250055    -0.77500
C717        C  0.05832605  0.55807115  0.24621376     0.83200
N718        N  0.06312091  0.58137649  0.26853295    -0.77500
C719        C  0.08947783  0.60919586  0.26678909     0.83300
N720        N  0.11146184  0.61301785  0.24329393    -0.79200
C721        C  0.01888524  0.60828154  0.22367611     0.80800
N722        N  0.01702435  0.58015999  0.22266987    -0.77500
C723        C  0.00014385  0.55826065  0.24710541     0.83200
N724        N  0.48401170  0.56493125  0.27226453    -0.77500
C725        C  0.48498682  0.59270021  0.27253319     0.83300
N726        N  0.00273813  0.61391766  0.24827573    -0.79200
C727        C  0.41154672  0.89247003  0.27216048     0.80800
N728        N  0.43803892  0.92021672  0.27240282    -0.77500
C729        C  0.44203642  0.94273719  0.24920042     0.83200
N730        N  0.41897116  0.93753736  0.22631970    -0.77500
C731        C  0.39194798  0.91028146  0.22681713     0.83300
N732        N  0.38863759  0.88783326  0.24950407    -0.79200
C733        C  0.48258229  0.89223096  0.22487700     0.80800
N734        N  0.48305190  0.91976753  0.22379239    -0.77500
C735        C  0.00126344  0.94285821  0.24730779     0.83200
N736        N  0.01784407  0.93804414  0.27238699    -0.77500
C737        C  0.01858270  0.91119799  0.27342307     0.83300
N738        N  0.00189080  0.88880960  0.24952400    -0.79200
O739        O  0.27772932  0.65262646  0.46664662    -0.81300
C740        C  0.36542519  0.64063217  0.54588269     0.98100
O741        O  0.33701371  0.62471300  0.53943976    -0.70400
O742        O  0.28214187  0.61606198  0.52651497    -0.74000
Al743      Al  0.31679452  0.62520108  0.49759703     1.49000
C744        C  0.27401835  0.63236750  0.54386185     0.93300
O745        O  0.33340672  0.71652992  0.52855427    -0.80200
O746        O  0.37524949  0.72315877  0.47096058    -0.73800
Al747      Al  0.30823054  0.68278132  0.49756519     1.90100
O748        O  0.37302614  0.71064181  0.54144767    -0.72800
O749        O  0.38001431  0.67427428  0.45766269    -0.72700
O750        O  0.38225805  0.66448054  0.52800671    -0.78300
O751        O  0.34797959  0.62525750  0.46835532    -0.76500
O752        O  0.33292045  0.66626397  0.49825245    -1.12700
O753        O  0.29441827  0.62030234  0.45592064    -0.71900
C754        C  0.27628211  0.63037139  0.44925707     0.98900
C755        C  0.35693980  0.72323182  0.54725268     0.95300
Al756      Al  0.37396894  0.69091852  0.49941931     1.55600
O757        O  0.28592230  0.66093194  0.53801430    -0.76500
C758        C  0.37004969  0.64611715  0.45102545     0.99400
C759        C  0.35540741  0.72489766  0.45198845     0.94300
O760        O  0.32705195  0.70659398  0.45684859    -0.81800
O761        O  0.17464605  0.79131818  0.53589400    -0.81300
C762        C  0.13108683  0.85732675  0.45489050     0.98100
O763        O  0.11523689  0.83319544  0.47284991    -0.70400
O764        O  0.12494149  0.78771821  0.45525534    -0.74000
Al765      Al  0.12515276  0.80642422  0.49874234     1.49000
C766        C  0.14153844  0.77605515  0.44734258     0.93300
O767        O  0.21213828  0.83974647  0.45503765    -0.80200
O768        O  0.20323304  0.87632795  0.54165579    -0.73800
Al769      Al  0.19154073  0.81649297  0.49568997     1.90100
O770        O  0.21637343  0.88363258  0.47158088    -0.72800
O771        O  0.14903395  0.87102092  0.52930026    -0.72700
O772        O  0.15999815  0.87286952  0.45880373    -0.78300
O773        O  0.12056903  0.82198425  0.54256423    -0.76500
O774        O  0.16592145  0.83172479  0.49806979    -1.12700
O775        O  0.12579562  0.77414132  0.52460242    -0.71900
C776        C  0.14658865  0.77233407  0.54145152     0.98900
C777        C  0.22470163  0.86869641  0.45204294     0.95300
Al778      Al  0.18094598  0.87246558  0.50014908     1.55600
O779        O  0.16604226  0.78332031  0.46440192    -0.76500
C780        C  0.12835122  0.84989357  0.54781323     0.99400
C781        C  0.22251805  0.86726966  0.54626439     0.94300
O782        O  0.22222872  0.84662474  0.52666183    -0.81800
C783        C  0.47239584  0.50172649  0.74802372     0.02800
C784        C  0.47138207  0.97212557  0.74789230     0.02800
C785        C  0.99980681  0.97072536  0.74764566     0.02800
C786        C  0.02756630  0.50107549  0.74889970     0.02800
C787        C  0.02785006  0.52956822  0.75028058     0.02800
C788        C  0.99979462  0.53021920  0.75033420     0.02800
C789        C  0.08950896  0.97975664  0.76765742     0.80800
N790        N  0.11100955  0.99665374  0.74307123    -0.77500
C791        C  0.10541730  0.51664410  0.72130883     0.83200
N792        N  0.07885789  0.51784354  0.72312153    -0.77500
C793        C  0.05789977  0.99898157  0.74612770     0.83300
N794        N  0.06313012  0.98126524  0.76917941    -0.79200
C795        C  0.39124383  0.98137020  0.72415246     0.80800
N796        N  0.41931107  0.98318991  0.72348486    -0.77500
C797        C  0.44110925  0.00028075  0.74799409     0.83200
N798        N  0.43601901  0.51730886  0.77074565    -0.77500
C799        C  0.40860171  0.51683022  0.77002671     0.83300
N800        N  0.38549016  0.99733499  0.74874387    -0.79200
C801        C  0.48112006  0.59134407  0.72707395     0.80800
N802        N  0.50021828  0.61446662  0.74887826    -0.77500
C803        C  0.02008193  0.61151942  0.77127727     0.83200
N804        N  0.01913648  0.58373666  0.77255351    -0.77500
C805        C  0.50061991  0.56029484  0.74976698     0.83300
N806        N  0.48187261  0.56451849  0.72721217    -0.79200
C807        C  0.09005956  0.60761363  0.72493310     0.80800
N808        N  0.11079716  0.61370157  0.75103827    -0.77500
C809        C  0.10547838  0.59270502  0.77654105     0.83200
N810        N  0.07879564  0.56510592  0.77613869    -0.77500
C811        C  0.05760861  0.55891554  0.75030484     0.83300
N812        N  0.06347821  0.58006915  0.72464171    -0.79200
C813        C  0.48932518  0.89724213  0.77990745     0.80800
N814        N  0.50331298  0.88998918  0.75410104    -0.77500
C815        C  0.01493000  0.90697015  0.72441210     0.83200
N816        N  0.01408788  0.93380371  0.72292334    -0.77500
C817        C  0.50033514  0.94278347  0.74948251     0.83300
N818        N  0.48776496  0.92362517  0.77744537    -0.79200
C819        C  0.40997940  0.89170229  0.72626579     0.80800
N820        N  0.38788555  0.88782444  0.74973840    -0.77500
C821        C  0.39238831  0.91064711  0.77252635     0.83200
N822        N  0.41961899  0.93759007  0.77192465    -0.77500
C823        C  0.44186427  0.94212812  0.74838808     0.83300
N824        N  0.43692299  0.91911446  0.72555233    -0.79200
C825        C  0.09961108  0.70741301  0.60519880    -0.27700
C826        C  0.12145762  0.69928124  0.61630116     0.05900
C827        C  0.15138919  0.71479452  0.60205742     0.25600
C828        C  0.15951145  0.73879287  0.57806381    -0.12200
C829        C  0.13780535  0.74729621  0.56731904    -0.26100
C830        C  0.10758561  0.73115696  0.58090662     0.36400
C831        C  0.11319704  0.67558645  0.64383297     0.06000
F832        F  0.17264049  0.70646850  0.61097627    -0.19900
H833        H  0.18272571  0.75046546  0.56751476     0.15800
F834        F  0.08590549  0.73874792  0.57148251    -0.23600
H835        H  0.07649224  0.69582681  0.61602683     0.17600
C836        C  0.13201518  0.68195390  0.67363026     0.25600
C837        C  0.12410405  0.65975939  0.69973869    -0.12100
C838        C  0.09703995  0.63085264  0.69707470    -0.26200
C839        C  0.07760540  0.62479181  0.66766227     0.36500
C840        C  0.08580407  0.64701377  0.64124599    -0.27800
F841        F  0.15763437  0.71002633  0.67806609    -0.19900
H842        H  0.13929368  0.66547844  0.72226136     0.15800
F843        F  0.05084617  0.59753965  0.66417502    -0.23600
H844        H  0.07081076  0.64186566  0.61860879     0.17600
C845        C  0.07214415  0.91340302  0.65524080    -0.27700
C846        C  0.06155077  0.88215398  0.64726634     0.05900
C847        C  0.03472035  0.85927586  0.66394545     0.25600
C848        C  0.01962784  0.86758010  0.68884667    -0.12200
C849        C  0.03038165  0.89881046  0.69685998    -0.26100
C850        C  0.05643366  0.92170580  0.67928498     0.36400
C851        C  0.07871488  0.87373218  0.62182508     0.06000
F852        F  0.02267779  0.82893275  0.65572222    -0.19900
H853        H  0.99923621  0.84953162  0.70161345     0.15800
F854        F  0.06726932  0.95206536  0.68607880    -0.23600
H855        H  0.09291979  0.93147885  0.64318943     0.17600
C856        C  0.08974763  0.89016733  0.59014340     0.25600
C857        C  0.10653452  0.88265080  0.56684960    -0.12100
C858        C  0.11199317  0.85813136  0.57405608    -0.26200
C859        C  0.10080921  0.84142366  0.60545371     0.36500
C860        C  0.08465276  0.84945754  0.62928942    -0.27800
F861        F  0.08349392  0.91287344  0.58107612    -0.19900
H862        H  0.11452023  0.89549026  0.54249741     0.15800
F863        F  0.10610713  0.81787890  0.61344943    -0.23600
H864        H  0.07703777  0.83685450  0.65380169     0.17600
C865        C  0.31216423  0.93252803  0.68384658    -0.27700
C866        C  0.31952271  0.92813507  0.64962766     0.05900
C867        C  0.35076754  0.94063235  0.64026866     0.25600
C868        C  0.37411184  0.95711827  0.66492973    -0.12200
C869        C  0.36667702  0.96203126  0.69892916    -0.26100
C870        C  0.33538001  0.94939853  0.70823828     0.36400
C871        C  0.29437968  0.91174993  0.62370276     0.06000
F872        F  0.35877749  0.93821295  0.60689510    -0.19900
H873        H  0.39801848  0.96701168  0.65705871     0.15800
F874        F  0.32706897  0.95315509  0.74099427    -0.23600
H875        H  0.28827662  0.92298342  0.69166365     0.17600
C876        C  0.29262504  0.88758117  0.60304519     0.25600
C877        C  0.26889923  0.87283604  0.57837065    -0.12100
C878        C  0.24638009  0.88176035  0.57400916    -0.26200
C879        C  0.24773857  0.90541272  0.59551495     0.36500
C880        C  0.27153828  0.92020231  0.61995714    -0.27800
F881        F  0.31349380  0.87783801  0.60713129    -0.19900
H882        H  0.26831097  0.85453603  0.56251145     0.15800
F883        F  0.22638426  0.91466887  0.59279832    -0.23600
H884        H  0.27238919  0.93869484  0.63570157     0.17600
C885        C  0.42397580  0.57986050  0.65430584    -0.27700
C886        C  0.42403135  0.60801879  0.65574778     0.05900
C887        C  0.44085616  0.62937158  0.68226135     0.25600
C888        C  0.45869513  0.62335111  0.70572352    -0.12200
C889        C  0.46010365  0.59588523  0.70334329    -0.26100
C890        C  0.44186652  0.57373800  0.67782871     0.36400
C891        C  0.40851585  0.61609648  0.62805624     0.06000
F892        F  0.44038013  0.65630700  0.68512968    -0.19900
H893        H  0.47184702  0.64061728  0.72543369     0.15800
F894        F  0.44198849  0.54666485  0.67467542    -0.23600
H895        H  0.41100608  0.56311290  0.63403551     0.17600
C896        C  0.42543992  0.64330298  0.60846697     0.25600
C897        C  0.41111842  0.65095244  0.58201247    -0.12100
C898        C  0.37964559  0.63165225  0.57435024    -0.26200
C899        C  0.36264662  0.60422474  0.59391686     0.36500
C900        C  0.37713627  0.59651836  0.62044835    -0.27800
F901        F  0.45610048  0.66215595  0.61433147    -0.19900
H902        H  0.42488964  0.67210232  0.56738410     0.15800
F903        F  0.33220317  0.58480816  0.58744123    -0.23600
H904        H  0.36383417  0.57537379  0.63527166     0.17600
C905        C  0.16382748  0.53597547  0.64914073    -0.27700
C906        C  0.17679101  0.56820816  0.64601485     0.05900
C907        C  0.16485788  0.58314409  0.66706172     0.25600
C908        C  0.14071452  0.56608932  0.69061419    -0.12200
C909        C  0.12880109  0.53415765  0.69440168    -0.26100
C910        C  0.14058595  0.51922477  0.67353895     0.36400
C911        C  0.20260549  0.58577067  0.62086506     0.06000
F912        F  0.17729739  0.61432206  0.66599535    -0.19900
H913        H  0.13215201  0.57799303  0.70690737     0.15800
F914        F  0.12950621  0.98694460  0.67371869    -0.23600
H915        H  0.17172247  0.52360435  0.63267141     0.17600
C916        C  0.22668670  0.57884744  0.61721794     0.25600
C917        C  0.24979375  0.59418306  0.59216841    -0.12100
C918        C  0.25005659  0.61738397  0.57101872    -0.26200
C919        C  0.22667248  0.62504212  0.57517342     0.36500
C920        C  0.20297772  0.60906929  0.59952361    -0.27800
F921        F  0.22827457  0.55761882  0.63822197    -0.19900
H922        H  0.26781503  0.58816709  0.58955033     0.15800
F923        F  0.22594696  0.64695970  0.55459362    -0.23600
H924        H  0.18449931  0.61448417  0.60106213     0.17600
C925        C  0.40335988  0.78328631  0.61728913    -0.27700
C926        C  0.38198991  0.79207066  0.62838411     0.05900
C927        C  0.35245970  0.77786960  0.61294983     0.25600
C928        C  0.34451807  0.75536605  0.58700436    -0.12200
C929        C  0.36576045  0.74643573  0.57578179    -0.26100
C930        C  0.39537562  0.76058349  0.59137224     0.36400
C931        C  0.39074511  0.81683124  0.65497779     0.06000
F932        F  0.33157976  0.78655645  0.62206812    -0.19900
H933        H  0.32165567  0.74506019  0.57546824     0.15800
F934        F  0.41691697  0.75316249  0.58103536    -0.23600
H935        H  0.42629451  0.79408680  0.62871117     0.17600
C936        C  0.37228083  0.81196417  0.68471010     0.25600
C937        C  0.37900450  0.83626860  0.70783108    -0.12100
C938        C  0.40439063  0.86599105  0.70203518    -0.26200
C939        C  0.42358290  0.87050940  0.67289145     0.36500
C940        C  0.41678135  0.84608790  0.64973945    -0.27800
F941        F  0.34768964  0.78363700  0.69142723    -0.19900
H942        H  0.36407720  0.83172947  0.73027556     0.15800
F943        F  0.44830003  0.89866116  0.66592488    -0.23600
H944        H  0.43130675  0.85030728  0.62697312     0.17600
C945        C  0.07180497  0.92263172  0.35084142    -0.27700
C946        C  0.06984533  0.89358325  0.35239299     0.05900
C947        C  0.05193922  0.87097570  0.32746067     0.25600
C948        C  0.03572628  0.87709936  0.30184068    -0.12200
C949        C  0.03692721  0.90589674  0.30047130    -0.26100
C950        C  0.05547782  0.92884668  0.32516507     0.36400
C951        C  0.08560240  0.88620854  0.38045998     0.06000
F952        F  0.05031424  0.84293583  0.32775431    -0.19900
H953        H  0.02200596  0.85900610  0.28318974     0.15800
F954        F  0.05773273  0.95714586  0.32490909    -0.23600
H955        H  0.08549615  0.94028227  0.36997015     0.17600
C956        C  0.11766799  0.90400114  0.38547102     0.25600
C957        C  0.13238896  0.89465685  0.40992065    -0.12100
C958        C  0.11531095  0.86755431  0.42978631    -0.26200
C959        C  0.08296863  0.85050656  0.42556286     0.36500
C960        C  0.06841648  0.85985974  0.40115915    -0.27800
F961        F  0.13486455  0.92963182  0.36576755    -0.19900
H962        H  0.15721405  0.90840458  0.41290460     0.15800
F963        F  0.06524838  0.82452293  0.44454611    -0.23600
H964        H  0.04359285  0.84617480  0.39797017     0.17600
C965        C  0.38094941  0.81292386  0.31201943    -0.27700
C966        C  0.39347177  0.82023045  0.34596855     0.05900
C967        C  0.41405298  0.85126503  0.35461889     0.25600
C968        C  0.42090593  0.87469440  0.33000603    -0.12200
C969        C  0.40715056  0.86751368  0.29657329    -0.26100
C970        C  0.38775601  0.83626298  0.28743227     0.36400
C971        C  0.38385779  0.79551270  0.37260020     0.06000
F972        F  0.42620650  0.85902373  0.38742339    -0.19900
H973        H  0.43593860  0.89855077  0.33760466     0.15800
F974        F  0.37531939  0.82822180  0.25475755    -0.23600
H975        H  0.36552599  0.78905977  0.30472066     0.17600
C976        C  0.35251834  0.77697174  0.38122251     0.25600
C977        C  0.34348084  0.75397008  0.40680898    -0.12100
C978        C  0.36548078  0.74894516  0.42429061    -0.26200
C979        C  0.39692149  0.76738630  0.41526279     0.36500
C980        C  0.40591654  0.79050587  0.38973954    -0.27800
F981        F  0.33071113  0.78170451  0.36556788    -0.19900
H982        H  0.31919683  0.74031777  0.41322176     0.15800
F983        F  0.41903147  0.76307583  0.43082346    -0.23600
H984        H  0.43014250  0.80443373  0.38315279     0.17600
C985        C  0.45072031  0.63447931  0.32243803    -0.27700
C986        C  0.43180681  0.61215498  0.34696435     0.05900
C987        C  0.42926767  0.58274066  0.34605322     0.25600
C988        C  0.44634884  0.57635326  0.32165390    -0.12200
C989        C  0.46615640  0.59914873  0.29771695    -0.26100
C990        C  0.46772468  0.62824973  0.29816672     0.36400
C991        C  0.41572734  0.62043739  0.37381349     0.06000
F992        F  0.41113113  0.56056463  0.36945936    -0.19900
H993        H  0.44428401  0.55365961  0.32180675     0.15800
F994        F  0.96627252  0.63725316  0.26012239    -0.23600
H995        H  0.45247359  0.65704847  0.32218706     0.17600
C996        C  0.43224230  0.64767693  0.39366224     0.25600
C997        C  0.41702583  0.65615659  0.41810162    -0.12100
C998        C  0.38520170  0.63747169  0.42366051    -0.26200
C999        C  0.36857174  0.61026950  0.40379126     0.36500
C1000       C  0.38378039  0.60190121  0.37901151    -0.27800
F1001       F  0.46327805  0.66573850  0.39001186    -0.19900
H1002       H  0.43032052  0.67703170  0.43337411     0.15800
F1003       F  0.33756341  0.59224911  0.40768908    -0.23600
H1004       H  0.37054744  0.58117455  0.36350545     0.17600
C1005       C  0.09442714  0.71724982  0.37630978    -0.27700
C1006       C  0.11504046  0.70729226  0.36577611     0.05900
C1007       C  0.14439156  0.72060591  0.38157086     0.25600
C1008       C  0.15278853  0.74313356  0.40753099    -0.12200
C1009       C  0.13224591  0.75309720  0.41841898    -0.26100
C1010       C  0.10290455  0.74004021  0.40226527     0.36400
C1011       C  0.10626364  0.68304487  0.33849803     0.06000
F1012       F  0.16473236  0.71116199  0.37261203    -0.19900
H1013       H  0.17547270  0.75260738  0.41936034     0.15800
F1014       F  0.08219800  0.74883552  0.41180836    -0.23600
H1015       H  0.07178955  0.70745790  0.36428117     0.17600
C1016       C  0.07956377  0.65388627  0.34179848     0.25600
C1017       C  0.07373565  0.63022181  0.31787907    -0.12100
C1018       C  0.09442780  0.63513343  0.29030214    -0.26200
C1019       C  0.12024875  0.66497537  0.28606414     0.36500
C1020       C  0.12596778  0.68847221  0.30992894    -0.27800
F1021       F  0.05997876  0.64777729  0.36914142    -0.19900
H1022       H  0.05343291  0.60775628  0.32163784     0.15800
F1023       F  0.14038835  0.67162852  0.25919111    -0.23600
H1024       H  0.14630240  0.71097345  0.30645559     0.17600
C1025       C  0.15272056  0.56894860  0.34613572    -0.27700
C1026       C  0.18122645  0.56980559  0.34314998     0.05900
C1027       C  0.18554961  0.55399100  0.31510705     0.25600
C1028       C  0.16153811  0.53677479  0.29165275    -0.12200
C1029       C  0.13274822  0.53524827  0.29502525    -0.26100
C1030       C  0.12882175  0.55222171  0.32215472     0.36400
C1031       C  0.20585641  0.58594717  0.36998488     0.06000
F1032       F  0.21313364  0.55535110  0.31007170    -0.19900
H1033       H  0.16567065  0.52461515  0.27069648     0.15800
F1034       F  0.10183096  0.55231616  0.32610395    -0.23600
H1035       H  0.14858899  0.58063139  0.36761973     0.17600
C1036       C  0.21344525  0.61538836  0.38286649     0.25600
C1037       C  0.23641610  0.62977547  0.40851610    -0.12100
C1038       C  0.25255493  0.61535279  0.42147801    -0.26200
C1039       C  0.24506619  0.58601005  0.40838497     0.36500
C1040       C  0.22177625  0.57145372  0.38332942    -0.27800
F1041       F  0.19916160  0.63057996  0.37023242    -0.19900
H1042       H  0.24174939  0.65237389  0.41803574     0.15800
F1043       F  0.25962645  0.57086099  0.42033797    -0.23600
H1044       H  0.21587655  0.54845772  0.37471427     0.17600
C1045       C  0.28793730  0.93379398  0.39884456    -0.27700
C1046       C  0.29918536  0.91809580  0.37841858     0.05900
C1047       C  0.28596967  0.88587400  0.38274079     0.25600
C1048       C  0.26167378  0.86988702  0.40648809    -0.12200
C1049       C  0.24999995  0.88561004  0.42633025    -0.26100
C1050       C  0.26350910  0.91787860  0.42214770     0.36400
C1051       C  0.32392029  0.93555693  0.35211384     0.06000
F1052       F  0.29588790  0.86964433  0.36339690    -0.19900
H1053       H  0.25193901  0.84513099  0.40924478     0.15800
F1054       F  0.25318884  0.93430905  0.44043979    -0.23600
H1055       H  0.29811945  0.95864681  0.39679167     0.17600
C1056       C  0.32243113  0.95755821  0.33013114     0.25600
C1057       C  0.34560517  0.97410469  0.30564038    -0.12100
C1058       C  0.37078930  0.96907945  0.30199401    -0.26200
C1059       C  0.37244355  0.94711241  0.32403797     0.36500
C1060       C  0.34926890  0.93067914  0.34886918    -0.27800
F1061       F  0.29806657  0.96256019  0.33151437    -0.19900
H1062       H  0.33812442  0.48091092  0.28368755     0.15800
F1063       F  0.39608615  0.94107794  0.32144488    -0.23600
H1064       H  0.35130176  0.91426602  0.36577832     0.17600
C1065       C  0.41457371  0.56893276  0.84596312    -0.27700
C1066       C  0.38517596  0.56613263  0.84503206     0.05900
C1067       C  0.36403712  0.54789881  0.81900950     0.25600
C1068       C  0.37202524  0.53223282  0.79472861    -0.12200
C1069       C  0.40125361  0.53439403  0.79583758    -0.26100
C1070       C  0.42265112  0.55318837  0.82167249     0.36400
C1071       C  0.37664986  0.58231266  0.87118897     0.06000
F1072       F  0.33580984  0.54563707  0.81672113    -0.19900
H1073       H  0.35508498  0.51829794  0.77505527     0.15800
F1074       F  0.45125284  0.55635202  0.82374179    -0.23600
H1075       H  0.43115165  0.58303797  0.86588239     0.17600
C1076       C  0.35008714  0.56587006  0.89188836     0.25600
C1077       C  0.34201029  0.58146136  0.91626319    -0.12100
C1078       C  0.36058481  0.61349261  0.92082244    -0.26200
C1079       C  0.38720326  0.62995050  0.90020514     0.36500
C1080       C  0.39509955  0.61438924  0.87550995    -0.27800
F1081       F  0.33253235  0.53464498  0.88928793    -0.19900
H1082       H  0.32170192  0.56835344  0.93236807     0.15800
F1083       F  0.40520111  0.66106584  0.90348979    -0.23600
H1084       H  0.41551744  0.62737954  0.85953762     0.17600
C1085       C  0.36740018  0.54733232  0.16974923    -0.27700
C1086       C  0.39080845  0.56695646  0.14659933     0.05900
C1087       C  0.42060839  0.57100081  0.15070132     0.25600
C1088       C  0.42653946  0.55507813  0.17709773    -0.12200
C1089       C  0.40290887  0.53485141  0.19990268    -0.26100
C1090       C  0.37323300  0.53141687  0.19611418     0.36400
C1091       C  0.38372622  0.58311807  0.11853310     0.06000
F1092       F  0.44375900  0.58963583  0.12860366    -0.19900
H1093       H  0.44967039  0.55846384  0.17944115     0.15800
F1094       F  0.34957555  0.51242044  0.21742682    -0.23600
H1095       H  0.34442645  0.54436589  0.16744673     0.17600
C1096       C  0.35794322  0.56667516  0.09655299     0.25600
C1097       C  0.35006877  0.58231947  0.07181520    -0.12100
C1098       C  0.36779594  0.61464860  0.06826282    -0.26200
C1099       C  0.39419029  0.63096823  0.08958695     0.36500
C1100       C  0.40192253  0.61527308  0.11453283    -0.27800
F1101       F  0.34049168  0.53541138  0.09881498    -0.19900
H1102       H  0.32993898  0.56899188  0.05543613     0.15800
F1103       F  0.41235236  0.66209232  0.08677706    -0.23600
H1104       H  0.42179502  0.62838218  0.13134407     0.17600
C1105       C  0.17223531  0.63795366  0.83843704    -0.27700
C1106       C  0.17898572  0.61512724  0.84982625     0.05900
C1107       C  0.15999647  0.58436185  0.83852722     0.25600
C1108       C  0.13520491  0.57689952  0.81581549    -0.12200
C1109       C  0.12922616  0.59997557  0.80360153    -0.26100
C1110       C  0.14772515  0.63057078  0.81542484     0.36400
C1111       C  0.20505158  0.62338599  0.87446206     0.06000
F1112       F  0.16599907  0.56167484  0.84844570    -0.19900
H1113       H  0.12140754  0.55327861  0.80669516     0.15800
F1114       F  0.14193050  0.65330939  0.80502359    -0.23600
H1115       H  0.18582900  0.66156584  0.84761074     0.17600
C1116       C  0.23413931  0.64993221  0.86925216     0.25600
C1117       C  0.25782163  0.65810919  0.89393591    -0.12100
C1118       C  0.25310030  0.63965363  0.92373599    -0.26200
C1119       C  0.22425799  0.61280864  0.92845147     0.36500
C1120       C  0.20049810  0.60505485  0.90427734    -0.27800
F1121       F  0.23982638  0.66770321  0.84011909    -0.19900
H1122       H  0.27994517  0.67868403  0.88959026     0.15800
F1123       F  0.21852523  0.59455336  0.95715032    -0.23600
H1124       H  0.17819775  0.58495241  0.90935611     0.17600
C1125       C  0.43144861  0.84720009  0.84860009    -0.27700
C1126       C  0.44473680  0.82988717  0.86105909     0.05900
C1127       C  0.47400444  0.83670901  0.84877610     0.25600
C1128       C  0.48890036  0.85940361  0.82308992    -0.12200
C1129       C  0.47500840  0.87584998  0.80961401    -0.26100
C1130       C  0.44647489  0.87010502  0.82319326     0.36400
C1131       C  0.42696971  0.80342800  0.88490417     0.06000
F1132       F  0.48800908  0.82123159  0.86140388    -0.19900
H1133       H  0.51114219  0.86388663  0.81338418     0.15800
F1134       F  0.43219900  0.88523108  0.81039628    -0.23600
H1135       H  0.40881117  0.84211155  0.85753462     0.17600
C1136       C  0.41413000  0.80709353  0.91607287     0.25600
C1137       C  0.39614757  0.78152812  0.93741441    -0.12100
C1138       C  0.39092425  0.75200726  0.92820293    -0.26200
C1139       C  0.40374348  0.74834187  0.89701989     0.36500
C1140       C  0.42153913  0.77386975  0.87556149    -0.27800
F1141       F  0.41956788  0.83548195  0.92622356    -0.19900
H1142       H  0.38687296  0.78492261  0.96163720     0.15800
F1143       F  0.39843330  0.71999988  0.88687741    -0.23600
H1144       H  0.43072767  0.77049540  0.85126860     0.17600
C1145       C  0.21253086  0.64121899  0.09895183    -0.27700
C1146       C  0.20409895  0.61541778  0.12056501     0.05900
C1147       C  0.21930077  0.59821666  0.11655489     0.25600
C1148       C  0.24291207  0.60720776  0.09168606    -0.12200
C1149       C  0.25176992  0.63349899  0.07050211    -0.26100
C1150       C  0.23615271  0.65037394  0.07443841     0.36400
C1151       C  0.18015068  0.60770300  0.14777985     0.06000
F1152       F  0.21202300  0.57336628  0.13734804    -0.19900
H1153       H  0.25441030  0.59371136  0.08921790     0.15800
F1154       F  0.24358764  0.67585980  0.05472674    -0.23600
H1155       H  0.20079907  0.65451736  0.10118995     0.17600
C1156       C  0.18215105  0.63096319  0.17022689     0.25600
C1157       C  0.15859297  0.62473226  0.19395539    -0.12100
C1158       C  0.13236768  0.59512886  0.19615965    -0.26200
C1159       C  0.13074220  0.57145720  0.17434809     0.36500
C1160       C  0.15449085  0.57780321  0.15040181    -0.27800
F1161       F  0.20705297  0.65988896  0.16928257    -0.19900
H1162       H  0.16095265  0.64345759  0.21045209     0.15800
F1163       F  0.10624704  0.54232947  0.17574148    -0.23600
H1164       H  0.15244855  0.55955246  0.13325666     0.17600
C1165       C  0.43132800  0.79046140  0.09749515    -0.27700
C1166       C  0.41406010  0.79518882  0.12326024     0.05900
C1167       C  0.38169108  0.77666622  0.12287174     0.25600
C1168       C  0.36709836  0.75337460  0.09756811    -0.12200
C1169       C  0.38451096  0.74818278  0.07223898    -0.26100
C1170       C  0.41687196  0.76730361  0.07228965     0.36400
C1171       C  0.43034902  0.81923649  0.15048854     0.06000
F1172       F  0.36425708  0.78049699  0.14748861    -0.19900
H1173       H  0.34218236  0.73919774  0.09802867     0.15800
F1174       F  0.43470036  0.76412285  0.04763922    -0.23600
H1175       H  0.45621416  0.80492592  0.09679142     0.17600
C1176       C  0.45507655  0.82019727  0.16938639     0.25600
C1177       C  0.47162380  0.84381143  0.19356197    -0.12100
C1178       C  0.46412695  0.86719211  0.19935903    -0.26200
C1179       C  0.43897553  0.86591442  0.18088255     0.36500
C1180       C  0.42223806  0.84207336  0.15678600    -0.27800
F1181       F  0.46313468  0.79811410  0.16462230    -0.19900
H1182       H  0.49070054  0.84396602  0.20744182     0.15800
F1183       F  0.43038238  0.88749621  0.18614292    -0.23600
H1184       H  0.40332513  0.84183698  0.14243604     0.17600
C1185       C  0.08063848  0.66161940  0.83937634    -0.27700
C1186       C  0.07689870  0.68776987  0.83993698     0.05900
C1187       C  0.05621027  0.68952972  0.81624879     0.25600
C1188       C  0.03834608  0.66484269  0.79392685    -0.12200
C1189       C  0.04073992  0.63781018  0.79441601    -0.26100
C1190       C  0.06268034  0.63675937  0.81695027     0.36400
C1191       C  0.09261015  0.71188354  0.86709474     0.06000
F1192       F  0.05299406  0.71504520  0.81493369    -0.19900
H1193       H  0.02218553  0.66687895  0.77660759     0.15800
F1194       F  0.06638586  0.61159704  0.81807590    -0.23600
H1195       H  0.09662075  0.65992258  0.85733630     0.17600
C1196       C  0.07524908  0.72017352  0.88895583     0.25600
C1197       C  0.08963659  0.74183622  0.91557372    -0.12100
C1198       C  0.12163394  0.75567652  0.92128922    -0.26200
C1199       C  0.13915542  0.74763788  0.89914176     0.36500
C1200       C  0.12463392  0.72578038  0.87239912    -0.27800
F1201       F  0.04409907  0.70645660  0.88546920    -0.19900
H1202       H  0.07544899  0.74744394  0.93207537     0.15800
F1203       F  0.17016205  0.76060734  0.90338040    -0.23600
H1204       H  0.13837935  0.71966486  0.85578714     0.17600
C1205       C  0.07008290  0.68717763  0.18389597    -0.27700
C1206       C  0.06996734  0.67979544  0.14837155     0.05900
C1207       C  0.05457820  0.64857958  0.13803105     0.25600
C1208       C  0.03880465  0.62519983  0.16286486    -0.12200
C1209       C  0.03800244  0.63267604  0.19821782    -0.26100
C1210       C  0.05435976  0.66387166  0.20869488     0.36400
C1211       C  0.08572279  0.70483814  0.12230282     0.06000
F1212       F  0.05376827  0.64082509  0.10374275    -0.19900
H1213       H  0.02629490  0.60133475  0.15427792     0.15800
F1214       F  0.05540636  0.67181324  0.24296399    -0.23600
H1215       H  0.08235258  0.71108226  0.19237983     0.17600
C1216       C  0.07675062  0.72725378  0.11755020     0.25600
C1217       C  0.09181079  0.75090240  0.09288677    -0.12100
C1218       C  0.11622849  0.75276251  0.07264382    -0.26200
C1219       C  0.12539387  0.73039596  0.07788210     0.36500
C1220       C  0.11009074  0.70661390  0.10233059    -0.27800
F1221       F  0.05291489  0.72581578  0.13618679    -0.19900
H1222       H  0.08413168  0.76762613  0.08945652     0.15800
F1223       F  0.14903318  0.73128391  0.05938067    -0.23600
H1224       H  0.11744548  0.68965251  0.10593733     0.17600
C1225       C  0.14511132  0.92176774  0.87927368    -0.27700
C1226       C  0.11406004  0.90795108  0.86874402     0.05900
C1227       C  0.09233829  0.87978709  0.88420645     0.25600
C1228       C  0.10170538  0.86613272  0.91006833    -0.12200
C1229       C  0.13274096  0.88037117  0.92095750    -0.26100
C1230       C  0.15444725  0.90818181  0.90496135     0.36400
C1231       C  0.10529017  0.92342730  0.84143659     0.06000
F1232       F  0.06228511  0.86520838  0.87396449    -0.19900
H1233       H  0.08459211  0.84462843  0.92194465     0.15800
F1234       F  0.18481906  0.92214520  0.91378253    -0.23600
H1235       H  0.16225921  0.94344838  0.86776669     0.17600
C1236       C  0.08071127  0.92928163  0.84635344     0.25600
C1237       C  0.07529462  0.94701720  0.82185164    -0.12100
C1238       C  0.09450675  0.95962540  0.79234649    -0.26200
C1239       C  0.11855658  0.95298567  0.78709269     0.36500
C1240       C  0.12362516  0.93493321  0.81126994    -0.27800
F1241       F  0.06300543  0.91938527  0.87567607    -0.19900
H1242       H  0.05656100  0.95164007  0.82662746     0.15800
F1243       F  0.13746264  0.96402933  0.75880783    -0.23600
H1244       H  0.14247149  0.93041997  0.80675459     0.17600
C1245       C  0.28433818  0.90450963  0.88015944    -0.27700
C1246       C  0.29903083  0.88684856  0.87664674     0.05900
C1247       C  0.29095534  0.86175391  0.89937449     0.25600
C1248       C  0.26764148  0.85365466  0.92408121    -0.12200
C1249       C  0.25204347  0.87055714  0.92701212    -0.26100
C1250       C  0.26098540  0.89649541  0.90508960     0.36400
C1251       C  0.32210441  0.89386807  0.84871529     0.06000
F1252       F  0.30582062  0.84516475  0.89782712    -0.19900
H1253       H  0.26178888  0.83396521  0.94094590     0.15800
F1254       F  0.24702947  0.91389722  0.90734295    -0.23600
H1255       H  0.29047946  0.92409644  0.86300370     0.17600
C1256       C  0.31853728  0.87064014  0.82519765     0.25600
C1257       C  0.34121688  0.87651866  0.80030593    -0.12100
C1258       C  0.36799191  0.90569992  0.79817734    -0.26200
C1259       C  0.37100857  0.92936883  0.82103615     0.36500
C1260       C  0.34813577  0.92340986  0.84594338    -0.27800
F1261       F  0.29297516  0.84217893  0.82625614    -0.19900
H1262       H  0.33785072  0.85789194  0.78295063     0.15800
F1263       F  0.39611936  0.95810381  0.81988379    -0.23600
H1264       H  0.35113503  0.94166113  0.86373049     0.17600
C1265       C  0.09490173  0.88904824  0.10417367    -0.27700
C1266       C  0.11730344  0.91552865  0.12159841     0.05900
C1267       C  0.14859396  0.92760086  0.11319862     0.25600
C1268       C  0.15734335  0.91314230  0.08805628    -0.12200
C1269       C  0.13507731  0.88639700  0.07072347    -0.26100
C1270       C  0.10359498  0.87450611  0.07893009     0.36400
C1271       C  0.10823319  0.93058598  0.14870628     0.06000
F1272       F  0.17066360  0.95378930  0.12886569    -0.19900
H1273       H  0.18165411  0.92307189  0.08203794     0.15800
F1274       F  0.08117632  0.84878692  0.06285493    -0.23600
H1275       H  0.07066888  0.87943722  0.11044965     0.17600
C1276       C  0.08771820  0.94142053  0.14086426     0.25600
C1277       C  0.08130672  0.95777631  0.16609145    -0.12100
C1278       C  0.09538622  0.96368547  0.19936709    -0.26200
C1279       C  0.11501954  0.95178047  0.20754049     0.36500
C1280       C  0.12132450  0.93538781  0.18235592    -0.27800
F1281       F  0.07503341  0.93743598  0.10836152    -0.19900
H1282       H  0.06610285  0.96668661  0.15919467     0.15800
F1283       F  0.11917428  0.44636917  0.24195742    -0.23600
H1284       H  0.13675145  0.92667058  0.18897243     0.17600
C1285       C  0.28861881  0.90475686  0.11158106    -0.27700
C1286       C  0.29451102  0.88235603  0.12636434     0.05900
C1287       C  0.27668297  0.85140097  0.11554614     0.25600
C1288       C  0.25346845  0.84311525  0.09040516    -0.12200
C1289       C  0.24766507  0.86549383  0.07525094    -0.26100
C1290       C  0.26550181  0.89653051  0.08619569     0.36400
C1291       C  0.31920229  0.89117083  0.15298581     0.06000
F1292       F  0.28235002  0.82926671  0.12848276    -0.19900
H1293       H  0.24042236  0.81915064  0.08228976     0.15800
F1294       F  0.26064984  0.91897775  0.07256950    -0.23600
H1295       H  0.30185485  0.92866588  0.11986223     0.17600
C1296       C  0.34939072  0.91545980  0.14682530     0.25600
C1297       C  0.37280215  0.92214897  0.17137383    -0.12100
C1298       C  0.36660361  0.90456994  0.20226533    -0.26200
C1299       C  0.33611491  0.88090971  0.20884651     0.36500
C1300       C  0.31275819  0.87445339  0.18446379    -0.27800
F1301       F  0.35656482  0.93179575  0.11640379    -0.19900
H1302       H  0.39601083  0.94048232  0.16563152     0.15800
F1303       F  0.32869177  0.86396895  0.23884834    -0.23600
H1304       H  0.28951536  0.85610680  0.19006816     0.17600
O1305       O  0.65261252  0.27832773  0.02454402    -0.81300
C1306       C  0.64280649  0.36810953  0.94835539     0.98100
O1307       O  0.62718266  0.33933950  0.95314482    -0.70400
O1308       O  0.61939580  0.28432653  0.96505117    -0.74000
Al1309     Al  0.62616890  0.31799082  0.99477213     1.49000
C1310       C  0.63715180  0.27847078  0.94710802     0.93300
O1311       O  0.71989487  0.33789513  0.97061333    -0.80200
O1312       O  0.72203733  0.37637099  0.02795994    -0.73800
Al1313     Al  0.68429072  0.31083161  0.99747140     1.90100
O1314       O  0.71292241  0.37666287  0.95678852    -0.72800
O1315       O  0.67220780  0.37975139  0.03860189    -0.72700
O1316       O  0.66564761  0.38459152  0.96784409    -0.78300
O1317       O  0.62406726  0.34816276  0.02408285    -0.76500
O1318       O  0.66716741  0.33487986  0.99662450    -1.12700
O1319       O  0.62003045  0.29448324  0.03610716    -0.71900
C1320       C  0.63022562  0.27626952  0.04201456     0.98900
C1321       C  0.72671530  0.36153952  0.95220611     0.95300
Al1322     Al  0.69112141  0.37584516  0.99770079     1.55600
O1323       O  0.66554251  0.29127133  0.95438261    -0.76500
C1324       C  0.64378196  0.36957598  0.04326160     0.99400
C1325       C  0.72300829  0.35598616  0.04678956     0.94300
O1326       O  0.70503032  0.32768161  0.04060698    -0.81800
O1327       O  0.87538544  0.15993600  0.03565337    -0.81300
C1328       C  0.77539926  0.14626126  0.95212319     0.98100
O1329       O  0.77589610  0.12558992  0.97095007    -0.70400
O1330       O  0.82292482  0.11831085  0.95491671    -0.74000
Al1331     Al  0.80802289  0.12480175  0.99779110     1.49000
C1332       C  0.85075885  0.12743977  0.94758499     0.93300
O1333       O  0.87823003  0.20332195  0.95289107    -0.80200
O1334       O  0.84040153  0.21090108  0.03982252    -0.73800
Al1335     Al  0.87427522  0.18074883  0.99448671     1.90100
O1336       O  0.84972391  0.22303379  0.96956436    -0.72800
O1337       O  0.78385975  0.16563980  0.02709092    -0.72700
O1338       O  0.79530152  0.17438877  0.95633965    -0.78300
O1339       O  0.78982556  0.12629699  0.04101511    -0.76500
O1340       O  0.83366575  0.16557885  0.99687762    -1.12700
O1341       O  0.83457049  0.11515079  0.02444447    -0.71900
C1342       C  0.85936777  0.13129420  0.04120942     0.98900
C1343       C  0.87043051  0.22369978  0.95005405     0.95300
Al1344     Al  0.81851720  0.19125512  0.99808101     1.55600
O1345       O  0.87233590  0.14906683  0.96473727    -0.76500
C1346       C  0.77680171  0.14215558  0.04590376     0.99400
C1347       C  0.86938143  0.22374641  0.04318692     0.94300
O1348       O  0.88486331  0.21591883  0.02374640    -0.81800
C1349       C  0.99923661  0.02875853  0.24714384     0.02800
C1350       C  0.97126154  0.99996531  0.24755253     0.02800
C1351       C  0.97162967  0.47143991  0.24773632    -0.01200
C1352       C  0.49998458  0.47195093  0.24753112     0.02800
C1353       C  0.52844085  0.00054236  0.24723411     0.02800
C1354       C  0.52870326  0.02916447  0.24696095     0.02800
C1355       C  0.90826872  0.01554166  0.22354639     0.80800
N1356       N  0.93521740  0.01515775  0.22316268    -0.77500
C1357       C  0.94123080  0.99922507  0.24787458     0.83200
N1358       N  0.92079078  0.48361529  0.27528482    -0.77500
C1359       C  0.89326486  0.48305176  0.27541279     0.83300
N1360       N  0.88704801  0.99929218  0.24857414    -0.79200
C1361       C  0.58905508  0.48091163  0.22371304     0.80800
N1362       N  0.61135861  0.99849748  0.25009866    -0.77500
C1363       C  0.60687848  0.01650673  0.27330423     0.83200
N1364       N  0.57986339  0.01688242  0.27245544    -0.77500
C1365       C  0.55795104  0.00010926  0.24804092     0.83300
N1366       N  0.56259528  0.48229767  0.22317874    -0.79200
C1367       C  0.60893353  0.09001814  0.22455632     0.80800
N1368       N  0.58131862  0.06335608  0.22395265    -0.77500
C1369       C  0.55867060  0.05880080  0.24707084     0.83200
N1370       N  0.56375524  0.08130348  0.27071164    -0.77500
C1371       C  0.59105432  0.10830382  0.27112892     0.83300
N1372       N  0.61337693  0.11228317  0.24806245    -0.79200
C1373       C  0.51899329  0.10916956  0.22189193     0.80800
N1374       N  0.51816338  0.08151060  0.22226106    -0.77500
C1375       C  0.50047467  0.05946813  0.24618150     0.83200
N1376       N  0.97997157  0.06319030  0.26842525    -0.77500
C1377       C  0.97854822  0.08974023  0.26671006     0.83300
N1378       N  0.50119250  0.11415634  0.24474885    -0.79200
C1379       C  0.90993382  0.39147466  0.26992610     0.80800
N1380       N  0.93711547  0.41858478  0.27005436    -0.77500
C1381       C  0.94174962  0.44170634  0.24748913     0.83200
N1382       N  0.91871602  0.43766876  0.22507448    -0.77500
C1383       C  0.89107212  0.41106207  0.22572607     0.83300
N1384       N  0.88705283  0.38813784  0.24799074    -0.79200
C1385       C  0.98393358  0.39248844  0.22186622     0.80800
N1386       N  0.98424166  0.41993381  0.22143454    -0.77500
C1387       C  0.49987057  0.44213210  0.24761847     0.83200
N1388       N  0.51552746  0.43629382  0.27293977    -0.77500
C1389       C  0.51564254  0.40912305  0.27330553     0.83300
N1390       N  0.49957022  0.38765455  0.24829595    -0.79200
O1391       O  0.77817098  0.15382142  0.46826987    -0.81300
C1392       C  0.86845499  0.14290581  0.54482277     0.98100
O1393       O  0.84005326  0.12627049  0.53876116    -0.70400
O1394       O  0.78458502  0.11723799  0.52923876    -0.74000
Al1395     Al  0.81792270  0.12623478  0.49836280     1.49000
C1396       C  0.77567967  0.13324281  0.54580802     0.93300
O1397       O  0.83366781  0.21681083  0.52980493    -0.80200
O1398       O  0.87520122  0.22324709  0.46854907    -0.73800
Al1399     Al  0.80869975  0.18363332  0.49887086     1.90100
O1400       O  0.87564294  0.21406366  0.53931014    -0.72800
O1401       O  0.88027337  0.17454503  0.45633944    -0.72700
O1402       O  0.88443823  0.16714912  0.52721334    -0.78300
O1403       O  0.84751753  0.12581842  0.46697363    -0.76500
O1404       O  0.83385358  0.16742138  0.49851441    -1.12700
O1405       O  0.79358676  0.12042290  0.45823919    -0.71900
C1406       C  0.77583045  0.13092986  0.45158949     0.98900
C1407       C  0.85840861  0.22512049  0.54658715     0.95300
Al1408     Al  0.87508099  0.19240269  0.49793546     1.55600
O1409       O  0.78677033  0.16155412  0.53923874    -0.76500
C1410       C  0.86924912  0.14633825  0.44903069     0.99400
C1411       C  0.85473409  0.22540684  0.45144968     0.94300
O1412       O  0.82661128  0.20796016  0.45832637    -0.81800
O1413       O  0.67478776  0.29451726  0.54118513    -0.81300
C1414       C  0.63001337  0.35536371  0.45329246     0.98100
O1415       O  0.61449767  0.33177551  0.47208897    -0.70400
O1416       O  0.62551925  0.28671681  0.45795525    -0.74000
Al1417     Al  0.62484323  0.30655681  0.50007346     1.49000
C1418       C  0.64172352  0.27412898  0.45272932     0.93300
O1419       O  0.71120685  0.33830479  0.45738920    -0.80200
O1420       O  0.70313134  0.37894079  0.54131413    -0.73800
Al1421     Al  0.69131069  0.31722589  0.49934006     1.90100
O1422       O  0.71517646  0.38285043  0.47076022    -0.72800
O1423       O  0.64816920  0.37212334  0.52822146    -0.72700
O1424       O  0.65881480  0.37170411  0.45757942    -0.78300
O1425       O  0.61951645  0.32326417  0.54237782    -0.76500
O1426       O  0.66547138  0.33225634  0.49955569    -1.12700
O1427       O  0.62590353  0.27560562  0.52815626    -0.71900
C1428       C  0.64675671  0.27517410  0.54644022     0.98900
C1429       C  0.72333951  0.36704467  0.45243016     0.95300
Al1430     Al  0.68014167  0.37297174  0.49947783     1.55600
O1431       O  0.66587906  0.28203237  0.47067696    -0.76500
C1432       C  0.62733846  0.35125100  0.54691259     0.99400
C1433       C  0.72262090  0.37021231  0.54656444     0.94300
O1434       O  0.72218247  0.34896428  0.52809823    -0.81800
C1435       C  0.97142720  0.99934135  0.74754127     0.02800
C1436       C  0.97091921  0.47331114  0.74813835     0.02800
C1437       C  0.50108126  0.47359920  0.74864637     0.02800
C1438       C  0.52801294  0.00066795  0.74812739     0.02800
C1439       C  0.52777415  0.02885308  0.74923213     0.02800
C1440       C  0.49941365  0.02901015  0.74966528     0.02800
C1441       C  0.59107881  0.48304318  0.76713599     0.80800
N1442       N  0.61154780  0.49916789  0.74129340    -0.77500
C1443       C  0.60688941  0.01765533  0.72300871     0.83200
N1444       N  0.57990412  0.01809131  0.72362132    -0.77500
C1445       C  0.55896495  0.50214109  0.74708464     0.83300
N1446       N  0.56487714  0.48476236  0.76989362    -0.79200
C1447       C  0.89261708  0.48489971  0.72191684     0.80800
N1448       N  0.92020199  0.48568758  0.72216955    -0.77500
C1449       C  0.94172470  0.50239290  0.74706690     0.83200
N1450       N  0.93557061  0.01580528  0.77062414    -0.77500
C1451       C  0.90799055  0.01511606  0.77039183     0.83300
N1452       N  0.88720802  0.50169868  0.74574152    -0.79200
C1453       C  0.98326533  0.09069131  0.72591379     0.80800
N1454       N  0.00217107  0.11297168  0.74873747    -0.77500
C1455       C  0.52158503  0.11056095  0.77058003     0.83200
N1456       N  0.51942999  0.08230412  0.77201635    -0.77500
C1457       C  0.00014885  0.05766962  0.74912865     0.83300
N1458       N  0.98273574  0.06320169  0.72587148    -0.79200
C1459       C  0.59014997  0.10734322  0.72528365     0.80800
N1460       N  0.61075615  0.11297130  0.75142392    -0.77500
C1461       C  0.60523776  0.09155500  0.77644009     0.83200
N1462       N  0.57850807  0.06407438  0.77559732    -0.77500
C1463       C  0.55745768  0.05830808  0.74971939     0.83300
N1464       N  0.56351083  0.07983772  0.72445721    -0.79200
C1465       C  0.98524319  0.39594414  0.77749403     0.80800
N1466       N  0.99950868  0.38897087  0.75173010    -0.77500
C1467       C  0.51601807  0.40986820  0.72492154     0.83200
N1468       N  0.51551463  0.43688170  0.72371551    -0.77500
C1469       C  0.99867944  0.44294026  0.74899296     0.83300
N1470       N  0.98479024  0.42294022  0.77598628    -0.79200
C1471       C  0.90718597  0.39575148  0.72116370     0.80800
N1472       N  0.88458705  0.39203826  0.74370049    -0.77500
C1473       C  0.88994246  0.41369279  0.76852771     0.83200
N1474       N  0.91823894  0.43937264  0.77033341    -0.77500
C1475       C  0.94091029  0.44375356  0.74747062     0.83300
N1476       N  0.93538085  0.42166898  0.72306797    -0.79200
C1477       C  0.59974618  0.21120051  0.61095660    -0.27700
C1478       C  0.62122372  0.20227927  0.62112123     0.05900
C1479       C  0.65110522  0.21755026  0.60679902     0.25600
C1480       C  0.65950204  0.24185215  0.58325991    -0.12200
C1481       C  0.63809371  0.25088187  0.57308216    -0.26100
C1482       C  0.60802362  0.23532606  0.58711414     0.36400
C1483       C  0.61275321  0.17785429  0.64764279     0.06000
F1484       F  0.67196046  0.20852496  0.61503011    -0.19900
H1485       H  0.68257113  0.25311870  0.57230631     0.15800
F1486       F  0.58679703  0.24372074  0.57830675    -0.23600
H1487       H  0.57669814  0.19979359  0.62198312     0.17600
C1488       C  0.63129756  0.18352787  0.67751621     0.25600
C1489       C  0.62360359  0.16046246  0.70243444    -0.12100
C1490       C  0.59710094  0.13128812  0.69836114    -0.26200
C1491       C  0.57806977  0.12578365  0.66867903     0.36500
C1492       C  0.58593918  0.14901003  0.64357660    -0.27800
F1493       F  0.65655219  0.21167719  0.68302552    -0.19900
H1494       H  0.63852003  0.16570705  0.72514110     0.15800
F1495       F  0.55214647  0.09807237  0.66357921    -0.23600
H1496       H  0.57130108  0.14438495  0.62070135     0.17600
C1497       C  0.57189294  0.41565135  0.65425733    -0.27700
C1498       C  0.56131900  0.38431013  0.64674462     0.05900
C1499       C  0.53497100  0.36160504  0.66438414     0.25600
C1500       C  0.52038988  0.37018094  0.68963289    -0.12200
C1501       C  0.53107740  0.40149089  0.69709072    -0.26100
C1502       C  0.55658561  0.42420156  0.67858859     0.36400
C1503       C  0.57809104  0.37561912  0.62096345     0.06000
F1504       F  0.52284408  0.33112760  0.65682493    -0.19900
H1505       H  0.50038772  0.35223538  0.70308078     0.15800
F1506       F  0.56727633  0.45464414  0.68466365    -0.23600
H1507       H  0.59237117  0.43365498  0.64165911     0.17600
C1508       C  0.58944866  0.39224907  0.58940237     0.25600
C1509       C  0.60613212  0.38461484  0.56604999    -0.12100
C1510       C  0.61102561  0.35970508  0.57298282    -0.26200
C1511       C  0.59924963  0.34262443  0.60405727     0.36500
C1512       C  0.58341561  0.35088607  0.62804039    -0.27800
F1513       F  0.58366986  0.41530264  0.58049359    -0.19900
H1514       H  0.61447930  0.39767772  0.54188560     0.15800
F1515       F  0.60365460  0.31843459  0.61162988    -0.23600
H1516       H  0.57564132  0.33809151  0.65240955     0.17600
C1517       C  0.81327118  0.43609300  0.68274812    -0.27700
C1518       C  0.82029458  0.43078341  0.64882100     0.05900
C1519       C  0.85132574  0.44204242  0.63939514     0.25600
C1520       C  0.87496120  0.45897515  0.66357519    -0.12200
C1521       C  0.86789340  0.46513823  0.69718624    -0.26100
C1522       C  0.83673765  0.45303622  0.70678409     0.36400
C1523       C  0.79504675  0.41478248  0.62315071     0.06000
F1524       F  0.85880503  0.43790462  0.60639191    -0.19900
H1525       H  0.89877032  0.46815548  0.65565075     0.15800
F1526       F  0.82883293  0.45740196  0.73949542    -0.23600
H1527       H  0.78947256  0.42725689  0.69053729     0.17600
C1528       C  0.79087345  0.38832960  0.60542196     0.25600
C1529       C  0.76701555  0.37377706  0.58094343    -0.12100
C1530       C  0.74680730  0.38525086  0.57383710    -0.26200
C1531       C  0.75069595  0.41143010  0.59230626     0.36500
C1532       C  0.77460600  0.42595603  0.61671906    -0.27800
F1533       F  0.80948423  0.37624257  0.61225827    -0.19900
H1534       H  0.76442863  0.35349182  0.56749590     0.15800
F1535       F  0.73183555  0.42339618  0.58651878    -0.23600
H1536       H  0.77747506  0.44629540  0.63033118     0.17600
C1537       C  0.92492998  0.08084232  0.65525077    -0.27700
C1538       C  0.92994976  0.11111544  0.65257589     0.05900
C1539       C  0.95110417  0.13393107  0.67547810     0.25600
C1540       C  0.96804131  0.12692722  0.69923220    -0.12200
C1541       C  0.96402436  0.09693966  0.70113870    -0.26100
C1542       C  0.94172225  0.07369209  0.67929753     0.36400
C1543       C  0.91395554  0.11905036  0.62512077     0.06000
F1544       F  0.95530340  0.16303359  0.67507619    -0.19900
H1545       H  0.98455773  0.14527717  0.71599028     0.15800
F1546       F  0.93619904  0.04415676  0.68079485    -0.23600
H1547       H  0.90851230  0.06284661  0.63804304     0.17600
C1548       C  0.93080156  0.14459343  0.60296672     0.25600
C1549       C  0.91572900  0.15214087  0.57724087    -0.12100
C1550       C  0.88361013  0.13418883  0.57255198    -0.26200
C1551       C  0.86676483  0.10819006  0.59430314     0.36500
C1552       C  0.88190296  0.10081042  0.62035716    -0.27800
F1553       F  0.96202469  0.16179132  0.60546796    -0.19900
H1554       H  0.92943111  0.17201172  0.56067115     0.15800
F1555       F  0.83575626  0.08991732  0.59057230    -0.23600
H1556       H  0.86853398  0.08092705  0.63705025     0.17600
C1557       C  0.66569269  0.03693693  0.65143168    -0.27700
C1558       C  0.67751728  0.06889259  0.64683126     0.05900
C1559       C  0.66466229  0.08363021  0.66673630     0.25600
C1560       C  0.64092223  0.06667297  0.69077837    -0.12200
C1561       C  0.63038467  0.03513634  0.69622287    -0.26100
C1562       C  0.64300589  0.02041002  0.67643110     0.36400
C1563       C  0.70339454  0.08638059  0.62171529     0.06000
F1564       F  0.67576653  0.11455441  0.66409400    -0.19900
H1565       H  0.63155375  0.07839528  0.70609013     0.15800
F1566       F  0.62965590  0.48938385  0.67179327    -0.23600
H1567       H  0.67410165  0.02458833  0.63571496     0.17600
C1568       C  0.72789386  0.07995308  0.61901345     0.25600
C1569       C  0.75127037  0.09532469  0.59429816    -0.12100
C1570       C  0.75146919  0.11818680  0.57264175    -0.26200
C1571       C  0.72761586  0.12530907  0.57573658     0.36500
C1572       C  0.70359799  0.10920821  0.59966897    -0.27800
F1573       F  0.72970144  0.05923737  0.64069287    -0.19900
H1574       H  0.76958048  0.08965390  0.59240054     0.15800
F1575       F  0.72679011  0.14683404  0.55452898    -0.23600
H1576       H  0.68480243  0.11419439  0.60034827     0.17600
C1577       C  0.90448463  0.29584261  0.60383439    -0.27700
C1578       C  0.88105912  0.29602020  0.62426256     0.05900
C1579       C  0.85053163  0.27146381  0.62015317     0.25600
C1580       C  0.84361913  0.24830135  0.59530724    -0.12200
C1581       C  0.86693554  0.24843036  0.57468969    -0.26100
C1582       C  0.89762202  0.27207576  0.57966080     0.36400
C1583       C  0.88831069  0.32211354  0.64889101     0.06000
F1584       F  0.82727296  0.26956456  0.64033478    -0.19900
H1585       H  0.81985553  0.23008855  0.59216600     0.15800
F1586       F  0.92072480  0.27314661  0.55988360    -0.23600
H1587       H  0.92807420  0.31460379  0.60577690     0.17600
C1588       C  0.91505566  0.33503231  0.67015998     0.25600
C1589       C  0.92160044  0.35973052  0.69271426    -0.12100
C1590       C  0.90115050  0.37127955  0.69548626    -0.26200
C1591       C  0.87428111  0.35828160  0.67478117     0.36500
C1592       C  0.86833807  0.33445861  0.65119772    -0.27800
F1593       F  0.93431210  0.32310411  0.67025480    -0.19900
H1594       H  0.94211175  0.36911724  0.70901285     0.15800
F1595       F  0.85402771  0.36897622  0.67691595    -0.23600
H1596       H  0.84806453  0.32576124  0.63461367     0.17600
C1597       C  0.57052682  0.41884247  0.34811985    -0.27700
C1598       C  0.56604768  0.38877478  0.35072990     0.05900
C1599       C  0.54493316  0.36568711  0.32806592     0.25600
C1600       C  0.52865426  0.37258424  0.30330322    -0.12200
C1601       C  0.53301774  0.40263507  0.30043839    -0.26100
C1602       C  0.55418968  0.42582877  0.32325010     0.36400
C1603       C  0.58277623  0.38115650  0.37747879     0.06000
F1604       F  0.54043746  0.33648726  0.32937769    -0.19900
H1605       H  0.51258173  0.35418529  0.28628088     0.15800
F1606       F  0.55938484  0.45525423  0.32154125    -0.23600
H1607       H  0.58644830  0.43686131  0.36564625     0.17600
C1608       C  0.61505353  0.39878976  0.38103304     0.25600
C1609       C  0.63040098  0.39027691  0.40560897    -0.12100
C1610       C  0.61382159  0.36405058  0.42692546    -0.26200
C1611       C  0.58142847  0.34659756  0.42334739     0.36500
C1612       C  0.56621766  0.35529393  0.39908963    -0.27800
F1613       F  0.63180894  0.42368728  0.36011942    -0.19900
H1614       H  0.65528191  0.40413714  0.40780235     0.15800
F1615       F  0.56420255  0.32106874  0.44321809    -0.23600
H1616       H  0.54129382  0.34168104  0.39713534     0.17600
C1617       C  0.87345646  0.31253280  0.31287931    -0.27700
C1618       C  0.89051572  0.31906662  0.34408813     0.05900
C1619       C  0.91571436  0.34892174  0.34946772     0.25600
C1620       C  0.92269318  0.37218140  0.32463540    -0.12200
C1621       C  0.90459885  0.36606125  0.29417259    -0.26100
C1622       C  0.88039279  0.33566383  0.28804626     0.36400
C1623       C  0.88129264  0.29482808  0.37121984     0.06000
F1624       F  0.93263219  0.35596763  0.37947531    -0.19900
H1625       H  0.94157078  0.39525459  0.32990793     0.15800
F1626       F  0.86327956  0.32815541  0.25814556    -0.23600
H1627       H  0.85447993  0.28943902  0.30788457     0.17600
C1628       C  0.85077565  0.27901286  0.38372430     0.25600
C1629       C  0.84223855  0.25626916  0.40952232    -0.12100
C1630       C  0.86396191  0.24895951  0.42343669    -0.26200
C1631       C  0.89450484  0.26472324  0.41065522     0.36500
C1632       C  0.90297024  0.28741381  0.38479348    -0.27800
F1633       F  0.82941886  0.28615993  0.37168231    -0.19900
H1634       H  0.81867383  0.24469868  0.41898673     0.15800
F1635       F  0.91620076  0.25809848  0.42278028    -0.23600
H1636       H  0.92647646  0.29909211  0.37513097     0.17600
C1637       C  0.93796311  0.12827988  0.31078957    -0.27700
C1638       C  0.92371687  0.10871669  0.33941827     0.05900
C1639       C  0.92531895  0.08141838  0.34262270     0.25600
C1640       C  0.94246490  0.07482548  0.31845246    -0.12200
C1641       C  0.95812019  0.09526841  0.29057614    -0.26100
C1642       C  0.95471254  0.12163858  0.28646308     0.36400
C1643       C  0.90925070  0.11832000  0.36690917     0.06000
F1644       F  0.91157712  0.06194154  0.37003973    -0.19900
H1645       H  0.94412929  0.05413993  0.32215394     0.15800
F1646       F  0.48017197  0.14902955  0.26687446    -0.23600
H1647       H  0.93650433  0.14914071  0.30759422     0.17600
C1648       C  0.92719153  0.14601592  0.38545340     0.25600
C1649       C  0.91386605  0.15527480  0.41155826    -0.12100
C1650       C  0.88243726  0.13707869  0.41978816    -0.26200
C1651       C  0.86423218  0.10973091  0.40053743     0.36500
C1652       C  0.87765269  0.10039546  0.37444400    -0.27800
F1653       F  0.95786758  0.16369371  0.37892158    -0.19900
H1654       H  0.92834916  0.17637046  0.42598663     0.15800
F1655       F  0.83340254  0.09242851  0.40640056    -0.23600
H1656       H  0.86336371  0.07932716  0.35988168     0.17600
C1657       C  0.59928874  0.21828736  0.37787342    -0.27700
C1658       C  0.61532018  0.20179690  0.37600536     0.05900
C1659       C  0.63937837  0.20872255  0.40001856     0.25600
C1660       C  0.64776940  0.23227071  0.42463523    -0.12200
C1661       C  0.63222473  0.24929449  0.42618280    -0.26100
C1662       C  0.60753387  0.24178146  0.40276631     0.36400
C1663       C  0.60820179  0.17852497  0.34803899     0.06000
F1664       F  0.65464312  0.19248576  0.39989041    -0.19900
H1665       H  0.66647040  0.23705604  0.44265819     0.15800
F1666       F  0.59166169  0.25738861  0.40342553    -0.23600
H1667       H  0.58082906  0.21346574  0.35947550     0.17600
C1668       C  0.57794113  0.15431201  0.34187007     0.25600
C1669       C  0.57237844  0.13174563  0.31653367    -0.12100
C1670       C  0.59682192  0.13301979  0.29681548    -0.26200
C1671       C  0.62691994  0.15801003  0.30232987     0.36500
C1672       C  0.63235713  0.18036167  0.32757629    -0.27800
F1673       F  0.55396621  0.15187008  0.36110281    -0.19900
H1674       H  0.54892498  0.11310535  0.31260225     0.15800
F1675       F  0.65144923  0.16072354  0.28403154    -0.23600
H1676       H  0.65573865  0.19919914  0.33135367     0.17600
C1677       C  0.65073307  0.06888609  0.35020355    -0.27700
C1678       C  0.67930620  0.06983046  0.34762953     0.05900
C1679       C  0.68408579  0.05430061  0.31963952     0.25600
C1680       C  0.66044592  0.03720719  0.29585895    -0.12200
C1681       C  0.63161254  0.03562205  0.29872357    -0.26100
C1682       C  0.62719675  0.05232020  0.32577446     0.36400
C1683       C  0.70369933  0.08584724  0.37462787     0.06000
F1684       F  0.71179452  0.05585054  0.31492420    -0.19900
H1685       H  0.66496196  0.02526302  0.27497697     0.15800
F1686       F  0.60011829  0.05233083  0.32914481    -0.23600
H1687       H  0.64628855  0.08038997  0.37162991     0.17600
C1688       C  0.71127590  0.11524961  0.38759490     0.25600
C1689       C  0.73480750  0.12987268  0.41255423    -0.12100
C1690       C  0.75145266  0.11568852  0.42465985    -0.26200
C1691       C  0.74378091  0.08629846  0.41166956     0.36500
C1692       C  0.71988413  0.07147091  0.38747331    -0.27800
F1693       F  0.69654684  0.13021668  0.37562141    -0.19900
H1694       H  0.74020996  0.15247468  0.42213810     0.15800
F1695       F  0.75890469  0.07144402  0.42271662    -0.23600
H1696       H  0.71391455  0.04844840  0.37889429     0.17600
C1697       C  0.78472010  0.42971298  0.39534648    -0.27700
C1698       C  0.79651761  0.41351410  0.37683074     0.05900
C1699       C  0.78410504  0.38169448  0.38343054     0.25600
C1700       C  0.76012426  0.36656236  0.40776397    -0.12200
C1701       C  0.74802183  0.38280901  0.42583475    -0.26100
C1702       C  0.76057688  0.41463932  0.41911035     0.36400
C1703       C  0.82109081  0.43018185  0.35022796     0.06000
F1704       F  0.79456263  0.36505146  0.36582195    -0.19900
H1705       H  0.75103529  0.34210495  0.41243954     0.15800
F1706       F  0.74960169  0.43145656  0.43534819    -0.23600
H1707       H  0.79426245  0.45432767  0.39141730     0.17600
C1708       C  0.81872930  0.45058921  0.32649266     0.25600
C1709       C  0.84237001  0.46762530  0.30279081    -0.12100
C1710       C  0.86891688  0.46460408  0.30155679    -0.26200
C1711       C  0.87112402  0.44367751  0.32480734     0.36500
C1712       C  0.84744406  0.42678443  0.34898493    -0.27800
F1713       F  0.79324679  0.45380702  0.32572973    -0.19900
H1714       H  0.84192882  0.98774269  0.28759336     0.15800
F1715       F  0.89594680  0.43937424  0.32427523    -0.23600
H1716       H  0.84998029  0.41143108  0.36715426     0.17600
C1717       C  0.91201000  0.06489658  0.84808794    -0.27700
C1718       C  0.88374682  0.06445957  0.84457607     0.05900
C1719       C  0.86440993  0.04896525  0.81605996     0.25600
C1720       C  0.87277883  0.03339149  0.79210259    -0.12200
C1721       C  0.90070082  0.03301299  0.79584359    -0.26100
C1722       C  0.92054740  0.04935925  0.82395156     0.36400
C1723       C  0.87474672  0.08062745  0.87032820     0.06000
F1724       F  0.83767374  0.04940774  0.81093957    -0.19900
H1725       H  0.85716951  0.02160703  0.77048250     0.15800
F1726       F  0.94792434  0.05012778  0.82848736    -0.23600
H1727       H  0.92731129  0.07700034  0.86984978     0.17600
C1728       C  0.84601348  0.06513497  0.88742032     0.25600
C1729       C  0.83790272  0.08079444  0.91175152    -0.12100
C1730       C  0.85840393  0.11195998  0.91966528    -0.26200
C1731       C  0.88690565  0.12754081  0.90209565     0.36500
C1732       C  0.89496866  0.11189890  0.87773807    -0.27800
F1733       F  0.82625930  0.03464163  0.88145240    -0.19900
H1734       H  0.81596556  0.06827305  0.92521727     0.15800
F1735       F  0.90682311  0.15797137  0.90813254    -0.23600
H1736       H  0.91698516  0.12427256  0.86440592     0.17600
C1737       C  0.86740836  0.04611436  0.16586109    -0.27700
C1738       C  0.89201918  0.06879643  0.14623140     0.05900
C1739       C  0.92218403  0.07480517  0.15315731     0.25600
C1740       C  0.92730923  0.05748589  0.17846468    -0.12200
C1741       C  0.90251352  0.03410774  0.19745006    -0.26100
C1742       C  0.87245447  0.02885148  0.19115713     0.36400
C1743       C  0.88553560  0.08515799  0.11796715     0.06000
F1744       F  0.94652522  0.09665003  0.13471725    -0.19900
H1745       H  0.95074301  0.06234578  0.18308130     0.15800
F1746       F  0.84772891  0.00654814  0.20867056    -0.23600
H1747       H  0.84405425  0.04154396  0.16131780     0.17600
C1748       C  0.86239874  0.06823167  0.09305906     0.25600
C1749       C  0.85438323  0.08350254  0.06810819    -0.12100
C1750       C  0.86946588  0.11596656  0.06712463    -0.26200
C1751       C  0.89367314  0.13297669  0.09105248     0.36500
C1752       C  0.90144595  0.11759299  0.11639913    -0.27800
F1753       F  0.84758957  0.03683794  0.09278074    -0.19900
H1754       H  0.83618575  0.06975998  0.04953171     0.15800
F1755       F  0.90930921  0.16436249  0.09061344    -0.23600
H1756       H  0.91936804  0.13102953  0.13538820     0.17600
C1757       C  0.66957773  0.13530616  0.84141642    -0.27700
C1758       C  0.67789276  0.11306871  0.85040841     0.05900
C1759       C  0.66107548  0.08311833  0.83610982     0.25600
C1760       C  0.63654723  0.07577920  0.81299840    -0.12200
C1761       C  0.62878840  0.09828952  0.80349870    -0.26100
C1762       C  0.64536065  0.12809874  0.81803826     0.36400
C1763       C  0.70348569  0.12110340  0.87550390     0.06000
F1764       F  0.66900470  0.06130024  0.84359261    -0.19900
H1765       H  0.62431276  0.05285374  0.80157327     0.15800
F1766       F  0.63789507  0.15015892  0.80993849    -0.23600
H1767       H  0.68174915  0.15827198  0.85273324     0.17600
C1768       C  0.73223340  0.14815948  0.87122454     0.25600
C1769       C  0.75558827  0.15622835  0.89621166    -0.12100
C1770       C  0.75080472  0.13731302  0.92558769    -0.26200
C1771       C  0.72218800  0.11002248  0.92955549     0.36500
C1772       C  0.69878189  0.10215982  0.90478654    -0.27800
F1773       F  0.73787718  0.16655979  0.84267444    -0.19900
H1774       H  0.77753061  0.17716463  0.89245034     0.15800
F1775       F  0.71635921  0.09145154  0.95798488    -0.23600
H1776       H  0.67665226  0.08153754  0.90890062     0.17600
C1777       C  0.92734500  0.34634090  0.84665245    -0.27700
C1778       C  0.93955094  0.32758497  0.85758070     0.05900
C1779       C  0.96814450  0.33334955  0.84404970     0.25600
C1780       C  0.98319045  0.35616644  0.81861191    -0.12200
C1781       C  0.97037875  0.37406324  0.80669287    -0.26100
C1782       C  0.94273169  0.36960840  0.82166398     0.36400
C1783       C  0.92159273  0.30099054  0.88136095     0.06000
F1784       F  0.98148648  0.31681980  0.85528338    -0.19900
H1785       H  0.00484239  0.35972273  0.80800303     0.15800
F1786       F  0.92966471  0.38647843  0.81078416    -0.23600
H1787       H  0.90526354  0.34221505  0.85645618     0.17600
C1788       C  0.90772338  0.30423788  0.91194372     0.25600
C1789       C  0.89032500  0.27870060  0.93352130    -0.12100
C1790       C  0.88685154  0.24963771  0.92538168    -0.26200
C1791       C  0.90063069  0.24633180  0.89481270     0.36500
C1792       C  0.91757954  0.27174248  0.87291269    -0.27800
F1793       F  0.91177490  0.33224364  0.92157321    -0.19900
H1794       H  0.88031351  0.28188184  0.95727182     0.15800
F1795       F  0.89733195  0.21848839  0.88580441    -0.23600
H1796       H  0.92740706  0.26848515  0.84907015     0.17600
C1797       C  0.71305828  0.14049260  0.10146357    -0.27700
C1798       C  0.70576018  0.11561877  0.12417904     0.05900
C1799       C  0.72148804  0.09887822  0.12060273     0.25600
C1800       C  0.74466318  0.10756619  0.09521379    -0.12200
C1801       C  0.75243553  0.13299447  0.07295533    -0.26100
C1802       C  0.73608767  0.14921763  0.07626280     0.36400
C1803       C  0.68204929  0.10806027  0.15165214     0.06000
F1804       F  0.71506055  0.07471898  0.14220929    -0.19900
H1805       H  0.75664130  0.09450250  0.09314027     0.15800
F1806       F  0.74207732  0.17351938  0.05508680    -0.23600
H1807       H  0.70077138  0.15328138  0.10322034     0.17600
C1808       C  0.68349198  0.13158777  0.17323860     0.25600
C1809       C  0.65987821  0.12529311  0.19696972    -0.12100
C1810       C  0.63415625  0.09540479  0.19987273    -0.26200
C1811       C  0.63320188  0.07154327  0.17904353     0.36500
C1812       C  0.65698350  0.07791402  0.15518215    -0.27800
F1813       F  0.70780739  0.16082667  0.17133158    -0.19900
H1814       H  0.66164261  0.14417840  0.21272355     0.15800
F1815       F  0.60933209  0.04214887  0.18139552    -0.23600
H1816       H  0.65537408  0.05945289  0.13873830     0.17600
C1817       C  0.93320911  0.29152931  0.09267112    -0.27700
C1818       C  0.91667534  0.29624732  0.11933220     0.05900
C1819       C  0.88438477  0.27745885  0.12047967     0.25600
C1820       C  0.86906550  0.25389849  0.09569999    -0.12200
C1821       C  0.88567692  0.24877002  0.06930942    -0.26100
C1822       C  0.91798484  0.26821531  0.06777852     0.36400
C1823       C  0.93347834  0.32069493  0.14585691     0.06000
F1824       F  0.86776994  0.28135928  0.14609625    -0.19900
H1825       H  0.84422356  0.23947391  0.09738955     0.15800
F1826       F  0.93495719  0.26521321  0.04188184    -0.23600
H1827       H  0.95803327  0.30617801  0.09096800     0.17600
C1828       C  0.95776105  0.32129388  0.16529042     0.25600
C1829       C  0.97405069  0.34477943  0.18969842    -0.12100
C1830       C  0.96663684  0.36828220  0.19515460    -0.26200
C1831       C  0.94222987  0.36759991  0.17568257     0.36500
C1832       C  0.92579705  0.34392314  0.15136849    -0.27800
F1833       F  0.96534123  0.29880050  0.16112829    -0.19900
H1834       H  0.99262734  0.34456281  0.20430343     0.15800
F1835       F  0.93379260  0.38936774  0.18051988    -0.23600
H1836       H  0.90720840  0.34388303  0.13651264     0.17600
C1837       C  0.57885708  0.15747934  0.84277246    -0.27700
C1838       C  0.58124547  0.18651375  0.83772646     0.05900
C1839       C  0.56653500  0.19108783  0.80877331     0.25600
C1840       C  0.54812026  0.16649539  0.78656063    -0.12200
C1841       C  0.54389124  0.13673829  0.79271662    -0.26100
C1842       C  0.56034877  0.13269771  0.82048781     0.36400
C1843       C  0.59638498  0.21099929  0.86449804     0.06000
F1844       F  0.56937916  0.21923819  0.80250446    -0.19900
H1845       H  0.53656973  0.17074912  0.76492988     0.15800
F1846       F  0.55764411  0.10468490  0.82715507    -0.23600
H1847       H  0.59022945  0.15365838  0.86493198     0.17600
C1848       C  0.57910619  0.22194974  0.88228525     0.25600
C1849       C  0.59273814  0.24410616  0.90862448    -0.12100
C1850       C  0.62393646  0.25596807  0.91782103    -0.26200
C1851       C  0.64147498  0.24546218  0.89937473     0.36500
C1852       C  0.62761462  0.22290072  0.87316913    -0.27800
F1853       F  0.54868113  0.21044378  0.87493416    -0.19900
H1854       H  0.57860717  0.25172960  0.92211281     0.15800
F1855       F  0.67179402  0.25656340  0.90687300    -0.23600
H1856       H  0.64123775  0.21471502  0.85957185     0.17600
C1857       C  0.56394717  0.18780841  0.17897377    -0.27700
C1858       C  0.57125511  0.18021159  0.14637282     0.05900
C1859       C  0.56346853  0.14944301  0.13959666     0.25600
C1860       C  0.54726674  0.12640221  0.16466709    -0.12200
C1861       C  0.53868010  0.13379462  0.19677606    -0.26100
C1862       C  0.54800834  0.16496906  0.20406267     0.36400
C1863       C  0.58624992  0.20451688  0.11942205     0.06000
F1864       F  0.57032740  0.14150583  0.10819641    -0.19900
H1865       H  0.54055582  0.10266755  0.15848422     0.15800
F1866       F  0.54188217  0.17354652  0.23548712    -0.23600
H1867       H  0.57045849  0.21154870  0.18489766     0.17600
C1868       C  0.57228522  0.22157492  0.10814627     0.25600
C1869       C  0.58680938  0.24501943  0.08321685    -0.12100
C1870       C  0.61549127  0.25184853  0.06903885    -0.26200
C1871       C  0.62947338  0.23472404  0.08052230     0.36500
C1872       C  0.61485545  0.21123501  0.10542588    -0.27800
F1873       F  0.54426747  0.21509460  0.12075077    -0.19900
H1874       H  0.57539042  0.25759853  0.07472428     0.15800
F1875       F  0.65743691  0.24084937  0.06812620    -0.23600
H1876       H  0.62605704  0.19851263  0.11417134     0.17600
C1877       C  0.64446798  0.42866736  0.88678738    -0.27700
C1878       C  0.61649892  0.41191900  0.86851079     0.05900
C1879       C  0.59733924  0.38033908  0.87609629     0.25600
C1880       C  0.60610533  0.36605806  0.90184578    -0.12200
C1881       C  0.63408512  0.38298308  0.92032267    -0.26100
C1882       C  0.65334344  0.41447863  0.91219856     0.36400
C1883       C  0.60852098  0.42790106  0.84106819     0.06000
F1884       F  0.57061862  0.36313838  0.85810088    -0.19900
H1885       H  0.59092696  0.34175620  0.90737937     0.15800
F1886       F  0.68093533  0.43173540  0.92855336    -0.23600
H1887       H  0.65957054  0.45302192  0.88141210     0.17600
C1888       C  0.57976849  0.42673635  0.84054500     0.25600
C1889       C  0.57407513  0.44430319  0.81606521    -0.12100
C1890       C  0.59701047  0.46361015  0.79198058    -0.26200
C1891       C  0.62563528  0.46440548  0.79246431     0.36500
C1892       C  0.63108585  0.44656422  0.81654999    -0.27800
F1893       F  0.55775632  0.40985854  0.86465921    -0.19900
H1894       H  0.55180521  0.44314704  0.81645395     0.15800
F1895       F  0.64883388  0.48298537  0.77041096    -0.23600
H1896       H  0.65338851  0.44776955  0.81647113     0.17600
C1897       C  0.78327918  0.40619625  0.87909758    -0.27700
C1898       C  0.79699296  0.38788570  0.87353427     0.05900
C1899       C  0.78837748  0.36173350  0.89464585     0.25600
C1900       C  0.76574390  0.35358047  0.92026118    -0.12200
C1901       C  0.75123372  0.37131787  0.92538808    -0.26100
C1902       C  0.76046362  0.39799955  0.90469336     0.36400
C1903       C  0.81985994  0.39565058  0.84530661     0.06000
F1904       F  0.80207019  0.34420915  0.89064306    -0.19900
H1905       H  0.75946406  0.33314829  0.93597259     0.15800
F1906       F  0.74737183  0.41604007  0.90886310    -0.23600
H1907       H  0.78983532  0.42652426  0.86307350     0.17600
C1908       C  0.81470757  0.37411561  0.81876544     0.25600
C1909       C  0.83722155  0.38059085  0.79341750    -0.12100
C1910       C  0.86543003  0.40861885  0.79406403    -0.26200
C1911       C  0.86998088  0.43075259  0.82000207     0.36500
C1912       C  0.84726740  0.42422242  0.84527967    -0.27800
F1913       F  0.78785914  0.34672717  0.81746220    -0.19900
H1914       H  0.83267380  0.36323010  0.77364904     0.15800
F1915       F  0.89646031  0.45843554  0.82155782    -0.23600
H1916       H  0.85142105  0.44116027  0.86548062     0.17600
C1917       C  0.59356340  0.38758533  0.10257820    -0.27700
C1918       C  0.61605805  0.41250128  0.12204794     0.05900
C1919       C  0.64741381  0.42270556  0.11609811     0.25600
C1920       C  0.65611109  0.40838802  0.09073869    -0.12200
C1921       C  0.63373925  0.38353045  0.07087499    -0.26100
C1922       C  0.60221171  0.37302763  0.07728266     0.36400
C1923       C  0.60697197  0.42805594  0.14847198     0.06000
F1924       F  0.66966377  0.44711143  0.13418787    -0.19900
H1925       H  0.68051303  0.41707569  0.08643639     0.15800
F1926       F  0.57971438  0.34884001  0.05917895    -0.23600
H1927       H  0.56926633  0.37932614  0.10714234     0.17600
C1928       C  0.58971476  0.44223445  0.13882982     0.25600
C1929       C  0.58310926  0.45871433  0.16371925    -0.12100
C1930       C  0.59397320  0.46154472  0.19833390    -0.26200
C1931       C  0.61051226  0.44661286  0.20812322     0.36500
C1932       C  0.61689434  0.42999362  0.18332988    -0.27800
F1933       F  0.58055734  0.44136846  0.10504211    -0.19900
H1934       H  0.57047993  0.47019422  0.15565543     0.15800
F1935       F  0.62946398  0.95657628  0.24074447    -0.23600
H1936       H  0.62990212  0.41885796  0.19121268     0.17600
C1937       C  0.78782485  0.40557872  0.11033147    -0.27700
C1938       C  0.79257848  0.38326558  0.12728295     0.05900
C1939       C  0.77353653  0.35189060  0.11868484     0.25600
C1940       C  0.75057354  0.34316048  0.09307141    -0.12200
C1941       C  0.74614182  0.36549447  0.07546971    -0.26100
C1942       C  0.76482843  0.39690133  0.08474397     0.36400
C1943       C  0.81761295  0.39271056  0.15355766     0.06000
F1944       F  0.77786063  0.32974043  0.13416294    -0.19900
H1945       H  0.73667297  0.31888547  0.08651705     0.15800
F1946       F  0.76107647  0.41935196  0.06912607    -0.23600
H1947       H  0.80196387  0.42981176  0.11698070     0.17600
C1948       C  0.84827576  0.41486005  0.14535864     0.25600
C1949       C  0.87202174  0.42171643  0.16950501    -0.12100
C1950       C  0.86560665  0.40643692  0.20201313    -0.26200
C1951       C  0.83468411  0.38539362  0.21080214     0.36500
C1952       C  0.81102351  0.37865594  0.18673139    -0.27800
F1953       F  0.85548428  0.42867477  0.11335633    -0.19900
H1954       H  0.89558662  0.43804696  0.16216851     0.15800
F1955       F  0.82722206  0.37122880  0.24262397    -0.23600
H1956       H  0.78745863  0.36210410  0.19384979     0.17600
O1957       O  0.65228115  0.77764105  0.02480675    -0.81300
C1958       C  0.64173525  0.86858853  0.95208242     0.98100
O1959       O  0.62592096  0.83981325  0.95689120    -0.70400
O1960       O  0.61800975  0.78444074  0.96754219    -0.74000
Al1961     Al  0.62582524  0.81811824  0.99777485     1.49000
C1962       C  0.63521706  0.77870713  0.94842446     0.93300
O1963       O  0.71869577  0.83758353  0.96957921    -0.80200
O1964       O  0.72228934  0.87569735  0.02879740    -0.73800
Al1965     Al  0.68358751  0.81047111  0.99716946     1.90100
O1966       O  0.71247335  0.87709678  0.95765308    -0.72800
O1967       O  0.67305931  0.87984273  0.04096150    -0.72700
O1968       O  0.66534428  0.88490903  0.97060808    -0.78300
O1969       O  0.62463212  0.84820611  0.02772299    -0.76500
O1970       O  0.66685669  0.83485043  0.99810435    -1.12700
O1971       O  0.62060163  0.79435778  0.03874898    -0.71900
C1972       C  0.63049672  0.77572831  0.04344316     0.98900
C1973       C  0.72580196  0.86169326  0.95192631     0.95300
Al1974     Al  0.69116804  0.87584934  0.99940196     1.55600
O1975       O  0.66381659  0.79163072  0.95434462    -0.76500
C1976       C  0.64475219  0.86990193  0.04617373     0.99400
C1977       C  0.72341690  0.85477026  0.04641847     0.94300
O1978       O  0.70530809  0.82663649  0.03966569    -0.81800
O1979       O  0.87537137  0.65989475  0.03932870    -0.81300
C1980       C  0.77768728  0.64825062  0.95288814     0.98100
O1981       O  0.77744717  0.62754694  0.97231885    -0.70400
O1982       O  0.82421043  0.61966550  0.95722182    -0.74000
Al1983     Al  0.80897362  0.62613675  0.99966017     1.49000
C1984       C  0.85208569  0.62841996  0.95059493     0.93300
O1985       O  0.88109275  0.70406176  0.95630574    -0.80200
O1986       O  0.84159116  0.71219964  0.04130454    -0.73800
Al1987     Al  0.87567867  0.68120553  0.99798111     1.90100
O1988       O  0.85264190  0.72432794  0.97127903    -0.72800
O1989       O  0.78523847  0.66760972  0.02757071    -0.72700
O1990       O  0.79809818  0.67623917  0.95681737    -0.78300
O1991       O  0.79071619  0.62812249  0.04248103    -0.76500
O1992       O  0.83516268  0.66674703  0.99902650    -1.12700
O1993       O  0.83459483  0.61556930  0.02665451    -0.71900
C1994       C  0.85907602  0.63116877  0.04408895     0.98900
C1995       C  0.87353481  0.72451987  0.95255295     0.95300
Al1996     Al  0.82055925  0.69286793  0.99918691     1.55600
O1997       O  0.87364502  0.64943376  0.96841599    -0.76500
C1998       C  0.77804765  0.64436937  0.04691238     0.99400
C1999       C  0.87035837  0.72434615  0.04598491     0.94300
O2000       O  0.88611399  0.71628945  0.02733325    -0.81800
C2001       C  0.00013074  0.52834038  0.24768322     0.02800
C2002       C  0.97183500  0.49994923  0.24899179     0.02800
C2003       C  0.97187247  0.97186639  0.24697071    -0.01200
C2004       C  0.50003953  0.97223251  0.24728047     0.02800
C2005       C  0.52843583  0.50016107  0.24743555     0.02800
C2006       C  0.52873555  0.52873219  0.24783018     0.02800
C2007       C  0.90908086  0.51597576  0.22587093     0.80800
N2008       N  0.93619467  0.51595852  0.22570108    -0.77500
C2009       C  0.94228075  0.50008156  0.25037274     0.83200
N2010       N  0.91983121  0.98308598  0.27297352    -0.77500
C2011       C  0.89245297  0.98282271  0.27326150     0.83300
N2012       N  0.88779134  0.49944192  0.25069486    -0.79200
C2013       C  0.58956383  0.98138021  0.22591044     0.80800
N2014       N  0.61124779  0.49776176  0.24767179    -0.77500
C2015       C  0.60725107  0.51578901  0.27135457     0.83200
N2016       N  0.58028462  0.51629616  0.27127864    -0.77500
C2017       C  0.55794477  0.49967909  0.24720219     0.83300
N2018       N  0.56304845  0.98264355  0.22459434    -0.79200
C2019       C  0.60781571  0.59062809  0.22282530     0.80800
N2020       N  0.58081613  0.56330405  0.22352808    -0.77500
C2021       C  0.55868260  0.55838263  0.24757728     0.83200
N2022       N  0.56365427  0.58113086  0.27078083    -0.77500
C2023       C  0.59006375  0.60888046  0.26953657     0.83300
N2024       N  0.61196498  0.61322244  0.24571442    -0.79200
C2025       C  0.52065653  0.60958889  0.22565780     0.80800
N2026       N  0.51863540  0.58140346  0.22478646    -0.77500
C2027       C  0.50071044  0.55910883  0.24834042     0.83200
N2028       N  0.98422802  0.56433812  0.27179371    -0.77500
C2029       C  0.98495447  0.59196864  0.27203997     0.83300
N2030       N  0.50358381  0.61480243  0.24937541    -0.79200
C2031       C  0.91333537  0.89105949  0.26886250     0.80800
N2032       N  0.93903991  0.91927730  0.26985960    -0.77500
C2033       C  0.94254878  0.94175836  0.24703553     0.83200
N2034       N  0.91953094  0.93612540  0.22379183    -0.77500
C2035       C  0.89309556  0.90823335  0.22358317     0.83300
N2036       N  0.89048468  0.88584761  0.24591255    -0.79200
C2037       C  0.98481829  0.89299432  0.22457509     0.80800
N2038       N  0.98487425  0.92029835  0.22334124    -0.77500
C2039       C  0.49991675  0.94226651  0.24769495     0.83200
N2040       N  0.51635113  0.93707600  0.27260351    -0.77500
C2041       C  0.51654683  0.90996348  0.27358518     0.83300
N2042       N  0.49954768  0.88770949  0.24968598    -0.79200
O2043       O  0.77954965  0.65445196  0.46520289    -0.81300
C2044       C  0.86691575  0.64268350  0.54570548     0.98100
O2045       O  0.83834198  0.62711563  0.53999750    -0.70400
O2046       O  0.78345495  0.61833556  0.52638792    -0.74000
Al2047     Al  0.81811223  0.62693798  0.49781716     1.49000
C2048       C  0.77504386  0.63481444  0.54289058     0.93300
O2049       O  0.83485928  0.71830911  0.52711153    -0.80200
O2050       O  0.87696942  0.72467250  0.47036650    -0.73800
Al2051     Al  0.80978574  0.68466575  0.49612952     1.90100
O2052       O  0.87431754  0.71218539  0.54055478    -0.72800
O2053       O  0.88101522  0.67526330  0.45677206    -0.72700
O2054       O  0.88370855  0.66604190  0.52716566    -0.78300
O2055       O  0.84945993  0.62652679  0.46912582    -0.76500
O2056       O  0.83429114  0.66794551  0.49758408    -1.12700
O2057       O  0.79567088  0.62143592  0.45592472    -0.71900
C2058       C  0.77780300  0.63172081  0.44857455     0.98900
C2059       C  0.85807421  0.72466027  0.54623305     0.95300
Al2060     Al  0.87535050  0.69237434  0.49862007     1.55600
O2061       O  0.78693112  0.66326014  0.53645293    -0.76500
C2062       C  0.87132324  0.64695185  0.45108897     0.99400
C2063       C  0.85741157  0.72648988  0.45105893     0.94300
O2064       O  0.82901133  0.70817635  0.45542553    -0.81800
O2065       O  0.67446603  0.79206488  0.53632171    -0.81300
C2066       C  0.63030971  0.85727771  0.45508259     0.98100
O2067       O  0.61450473  0.83324019  0.47323994    -0.70400
O2068       O  0.62397873  0.78756618  0.45641194    -0.74000
Al2069     Al  0.62440551  0.80671398  0.49960990     1.49000
C2070       C  0.64078554  0.77616586  0.44849084     0.93300
O2071       O  0.71079369  0.84021377  0.45532330    -0.80200
O2072       O  0.70217138  0.87660018  0.54256661    -0.73800
Al2073     Al  0.69086804  0.81713829  0.49608627     1.90100
O2074       O  0.71581517  0.88429813  0.47238733    -0.72800
O2075       O  0.64785546  0.87146372  0.52967022    -0.72700
O2076       O  0.65918787  0.87320411  0.45929338    -0.78300
O2077       O  0.61974245  0.82248443  0.54321527    -0.76500
O2078       O  0.66510791  0.83215301  0.49872343    -1.12700
O2079       O  0.62544005  0.77483651  0.52589171    -0.71900
C2080       C  0.64648716  0.77312279  0.54231225     0.98900
C2081       C  0.72373018  0.86917861  0.45254397     0.95300
Al2082     Al  0.68005666  0.87291681  0.50081805     1.55600
O2083       O  0.66550685  0.78386781  0.46518300    -0.76500
C2084       C  0.62710650  0.85031213  0.54810378     0.99400
C2085       C  0.72157336  0.86761155  0.54683546     0.94300
O2086       O  0.72156112  0.84741062  0.52671500    -0.81800
C2087       C  0.97129039  0.50200907  0.74858004     0.02800
C2088       C  0.97146250  0.97085161  0.74791039     0.02800
C2089       C  0.49986044  0.97229791  0.74796517     0.02800
C2090       C  0.52923957  0.50201776  0.74893130     0.02800
C2091       C  0.52908242  0.53026464  0.75021849     0.02800
C2092       C  0.50068031  0.53032666  0.74972822     0.02800
C2093       C  0.58994202  0.98278790  0.77067274     0.80800
N2094       N  0.61165092  0.99981986  0.74634551    -0.77500
C2095       C  0.60616150  0.51710388  0.71873626     0.83200
N2096       N  0.57979926  0.51853304  0.72164133    -0.77500
C2097       C  0.55789140  0.00090914  0.74770950     0.83300
N2098       N  0.56321196  0.98365587  0.77132927    -0.79200
C2099       C  0.89177089  0.98047906  0.72266604     0.80800
N2100       N  0.91968281  0.98194952  0.72223817    -0.77500
C2101       C  0.94159964  0.99936973  0.74649444     0.83200
N2102       N  0.93564260  0.51869201  0.77125050    -0.77500
C2103       C  0.90849692  0.51879703  0.77031122     0.83300
N2104       N  0.88630264  0.99717267  0.74656147    -0.79200
C2105       C  0.98246395  0.59242114  0.72625787     0.80800
N2106       N  0.00147647  0.61534445  0.74827841    -0.77500
C2107       C  0.51966691  0.61114788  0.77108144     0.83200
N2108       N  0.51944744  0.58371961  0.77182496    -0.77500
C2109       C  0.00034590  0.56047737  0.75024450     0.83300
N2110       N  0.98242177  0.56521545  0.72695981    -0.79200
C2111       C  0.59164385  0.60838655  0.72514479     0.80800
N2112       N  0.61255084  0.61415812  0.75094413    -0.77500
C2113       C  0.60717752  0.59312519  0.77641238     0.83200
N2114       N  0.58022176  0.56571561  0.77617835    -0.77500
C2115       C  0.55882005  0.55980703  0.75060920     0.83300
N2116       N  0.56479122  0.58106977  0.72505067    -0.79200
C2117       C  0.98749848  0.89445594  0.77773565     0.80800
N2118       N  0.00167116  0.88752560  0.75188513    -0.77500
C2119       C  0.51578723  0.90884555  0.72592507     0.83200
N2120       N  0.51438955  0.93537091  0.72377811    -0.77500
C2121       C  0.99990308  0.94098911  0.74869574     0.83300
N2122       N  0.98658916  0.92122846  0.77605062    -0.79200
C2123       C  0.90913823  0.89107486  0.72660813     0.80800
N2124       N  0.88696690  0.88770425  0.74968367    -0.77500
C2125       C  0.89178992  0.91072604  0.77236633     0.83200
N2126       N  0.91945386  0.93724408  0.77210272    -0.77500
C2127       C  0.94176573  0.94114583  0.74893575     0.83300
N2128       N  0.93641984  0.91805075  0.72615318    -0.79200
C2129       C  0.60064981  0.70914103  0.60735376    -0.27700
C2130       C  0.62248564  0.70071925  0.61757738     0.05900
C2131       C  0.65203349  0.71572195  0.60236532     0.25600
C2132       C  0.65981079  0.73950669  0.57816911    -0.12200
C2133       C  0.63810347  0.74827790  0.56827173    -0.26100
C2134       C  0.60825344  0.73263666  0.58285129     0.36400
C2135       C  0.61448100  0.67693275  0.64486537     0.06000
F2136       F  0.67316887  0.70702875  0.61046711    -0.19900
H2137       H  0.68272078  0.75078664  0.56679350     0.15800
F2138       F  0.58659024  0.74044792  0.57412186    -0.23600
H2139       H  0.57781066  0.69788028  0.61891999     0.17600
C2140       C  0.63355398  0.68307538  0.67437841     0.25600
C2141       C  0.62578523  0.66067540  0.70022942    -0.12100
C2142       C  0.59866280  0.63179532  0.69749491    -0.26200
C2143       C  0.57911241  0.62593714  0.66825415     0.36500
C2144       C  0.58711208  0.64838152  0.64218041    -0.27800
F2145       F  0.65927732  0.71108658  0.67874989    -0.19900
H2146       H  0.64110332  0.66620515  0.72260355     0.15800
F2147       F  0.55244228  0.59863894  0.66456921    -0.23600
H2148       H  0.57199703  0.64341123  0.61968966     0.17600
C2149       C  0.57048386  0.91389017  0.65404760    -0.27700
C2150       C  0.55963612  0.88247066  0.64675871     0.05900
C2151       C  0.53354204  0.85994691  0.66484853     0.25600
C2152       C  0.51937656  0.86876895  0.69040629    -0.12200
C2153       C  0.53046453  0.90015767  0.69790889    -0.26100
C2154       C  0.55586575  0.92270939  0.67903904     0.36400
C2155       C  0.57620143  0.87352106  0.62107315     0.06000
F2156       F  0.52142207  0.82942886  0.65749608    -0.19900
H2157       H  0.49947664  0.85098769  0.70416035     0.15800
F2158       F  0.56728409  0.95323169  0.68558445    -0.23600
H2159       H  0.59076348  0.93169732  0.64088999     0.17600
C2160       C  0.58562936  0.88861444  0.58842999     0.25600
C2161       C  0.60274179  0.88129377  0.56533361    -0.12100
C2162       C  0.61012496  0.85828308  0.57381225    -0.26200
C2163       C  0.60020905  0.84265677  0.60602317     0.36500
C2164       C  0.58367716  0.85048345  0.62956316    -0.27800
F2165       F  0.57768122  0.90993044  0.57846290    -0.19900
H2166       H  0.60962419  0.89314418  0.54028555     0.15800
F2167       F  0.60729300  0.82054085  0.61516193    -0.23600
H2168       H  0.57716311  0.83887154  0.65474846     0.17600
C2169       C  0.81231173  0.92910497  0.68499356    -0.27700
C2170       C  0.81900301  0.92731420  0.64964674     0.05900
C2171       C  0.85001418  0.94217592  0.63864059     0.25600
C2172       C  0.87385589  0.95848187  0.66279709    -0.12200
C2173       C  0.86703542  0.96078510  0.69796221    -0.26100
C2174       C  0.83602811  0.94573391  0.70896904     0.36400
C2175       C  0.79341139  0.91091809  0.62433167     0.06000
F2176       F  0.85716444  0.94218995  0.60428456    -0.19900
H2177       H  0.89755116  0.97036692  0.65375701     0.15800
F2178       F  0.82861341  0.94699771  0.74297510    -0.23600
H2179       H  0.78860366  0.91770753  0.69399512     0.17600
C2180       C  0.79255176  0.88819560  0.60185586     0.25600
C2181       C  0.76874442  0.87372115  0.57728964    -0.12100
C2182       C  0.74532114  0.88158261  0.57472861    -0.26200
C2183       C  0.74569314  0.90363090  0.59815707     0.36500
C2184       C  0.76954048  0.91808514  0.62266053    -0.27800
F2185       F  0.81454750  0.87975577  0.60390406    -0.19900
H2186       H  0.76891791  0.85660918  0.55995275     0.15800
F2187       F  0.72332653  0.91161509  0.59724639    -0.23600
H2188       H  0.76970787  0.93540379  0.63995180     0.17600
C2189       C  0.92614800  0.58184258  0.65291978    -0.27700
C2190       C  0.92659653  0.61020098  0.65430789     0.05900
C2191       C  0.94374850  0.63157905  0.68066885     0.25600
C2192       C  0.96136468  0.62529155  0.70413353    -0.12200
C2193       C  0.96217303  0.59750418  0.70198629    -0.26100
C2194       C  0.94381046  0.57544757  0.67647174     0.36400
C2195       C  0.91086488  0.61829242  0.62691075     0.06000
F2196       F  0.94366314  0.65871085  0.68355106    -0.19900
H2197       H  0.97467718  0.64253357  0.72380252     0.15800
F2198       F  0.94349351  0.54814661  0.67344778    -0.23600
H2199       H  0.91295495  0.56508686  0.63274679     0.17600
C2200       C  0.92749482  0.64571618  0.60759177     0.25600
C2201       C  0.91286311  0.65340255  0.58154895    -0.12100
C2202       C  0.88142204  0.63383346  0.57392323    -0.26200
C2203       C  0.86479207  0.60611219  0.59303432     0.36500
C2204       C  0.87953244  0.59845985  0.61928980    -0.27800
F2205       F  0.95816998  0.66470407  0.61324091    -0.19900
H2206       H  0.92637481  0.67474939  0.56715613     0.15800
F2207       F  0.83451803  0.58625800  0.58619151    -0.23600
H2208       H  0.86647429  0.57710106  0.63382185     0.17600
C2209       C  0.66326393  0.53749647  0.64481537    -0.27700
C2210       C  0.67600813  0.56975672  0.64248944     0.05900
C2211       C  0.66387740  0.58415732  0.66404654     0.25600
C2212       C  0.64016530  0.56662681  0.68784367    -0.12200
C2213       C  0.62884661  0.53475951  0.69128716    -0.26100
C2214       C  0.64042418  0.52025030  0.66942651     0.36400
C2215       C  0.70232931  0.58793225  0.61823826     0.06000
F2216       F  0.67586026  0.61528050  0.66342706    -0.19900
H2217       H  0.63157715  0.57815546  0.70471232     0.15800
F2218       F  0.63310594  0.98986010  0.68095598    -0.23600
H2219       H  0.67130266  0.52557041  0.62780896     0.17600
C2220       C  0.72665945  0.58131901  0.61551436     0.25600
C2221       C  0.75027080  0.59692111  0.59116246    -0.12100
C2222       C  0.75080231  0.62010923  0.56978470    -0.26200
C2223       C  0.72731853  0.62773987  0.57329232     0.36500
C2224       C  0.70310663  0.61148899  0.59701792    -0.27800
F2225       F  0.72790634  0.56001107  0.63670500    -0.19900
H2226       H  0.76840067  0.59100220  0.58914752     0.15800
F2227       F  0.72696705  0.64980683  0.55262714    -0.23600
H2228       H  0.68454831  0.61681792  0.59810749     0.17600
C2229       C  0.90328118  0.78429429  0.61683179    -0.27700
C2230       C  0.88125404  0.79199171  0.62842983     0.05900
C2231       C  0.85156497  0.77697865  0.61344284     0.25600
C2232       C  0.84422052  0.75492733  0.58710601    -0.12200
C2233       C  0.86622201  0.74725462  0.57520951    -0.26100
C2234       C  0.89586962  0.76197987  0.59063915     0.36400
C2235       C  0.88966774  0.81671789  0.65484258     0.06000
F2236       F  0.82998347  0.78448952  0.62331977    -0.19900
H2237       H  0.82124513  0.74399057  0.57579161     0.15800
F2238       F  0.91799238  0.75556962  0.57980117    -0.23600
H2239       H  0.92631881  0.79572509  0.62800893     0.17600
C2240       C  0.87199264  0.81134587  0.68538157     0.25600
C2241       C  0.87873038  0.83553011  0.70869229    -0.12100
C2242       C  0.90330063  0.86554019  0.70215981    -0.26200
C2243       C  0.92156253  0.87063581  0.67199854     0.36500
C2244       C  0.91476168  0.84637505  0.64871017    -0.27800
F2245       F  0.84827724  0.78265250  0.69274466    -0.19900
H2246       H  0.86457005  0.83069480  0.73190508     0.15800
F2247       F  0.94529267  0.89918966  0.66418576    -0.23600
H2248       H  0.92857127  0.85096473  0.62522519     0.17600
C2249       C  0.57023251  0.92092939  0.35030920    -0.27700
C2250       C  0.56813646  0.89181260  0.35167760     0.05900
C2251       C  0.54971248  0.86916999  0.32698421     0.25600
C2252       C  0.53332637  0.87542596  0.30169342    -0.12200
C2253       C  0.53484591  0.90437086  0.30042651    -0.26100
C2254       C  0.55374615  0.92726547  0.32498469     0.36400
C2255       C  0.58423045  0.88447340  0.37943066     0.06000
F2256       F  0.54776203  0.84098426  0.32713446    -0.19900
H2257       H  0.51926599  0.85734669  0.28317977     0.15800
F2258       F  0.55621054  0.95565461  0.32494140    -0.23600
H2259       H  0.58417608  0.93857446  0.36932693     0.17600
C2260       C  0.61618286  0.90299041  0.38497339     0.25600
C2261       C  0.63113607  0.89417153  0.40973564    -0.12100
C2262       C  0.61441597  0.86685984  0.42936235    -0.26200
C2263       C  0.58221922  0.84891156  0.42435196     0.36500
C2264       C  0.56743144  0.85778261  0.39973520    -0.27800
F2265       F  0.63306414  0.92894174  0.36563109    -0.19900
H2266       H  0.65584453  0.90855210  0.41324917     0.15800
F2267       F  0.56484538  0.82253129  0.44284789    -0.23600
H2268       H  0.54269590  0.84353516  0.39623435     0.17600
C2269       C  0.88373457  0.81221171  0.30958114    -0.27700
C2270       C  0.89707463  0.82007433  0.34313541     0.05900
C2271       C  0.91852855  0.85113147  0.35070012     0.25600
C2272       C  0.92484465  0.87408206  0.32574579    -0.12200
C2273       C  0.90974164  0.86641478  0.29308358    -0.26100
C2274       C  0.88996703  0.83510283  0.28468230     0.36400
C2275       C  0.88711974  0.79600967  0.37054984     0.06000
F2276       F  0.93196141  0.85951790  0.38285895    -0.19900
H2277       H  0.94043888  0.89800428  0.33263658     0.15800
F2278       F  0.87643053  0.82656989  0.25257000    -0.23600
H2279       H  0.86790807  0.78828270  0.30292262     0.17600
C2280       C  0.85553353  0.77659964  0.37750035     0.25600
C2281       C  0.84611010  0.75403664  0.40357537    -0.12100
C2282       C  0.86794436  0.75048551  0.42340565    -0.26200
C2283       C  0.89965424  0.77015539  0.41655161     0.36500
C2284       C  0.90902430  0.79259953  0.39026643    -0.27800
F2285       F  0.83376458  0.77999028  0.35968824    -0.19900
H2286       H  0.82162626  0.73949895  0.40841976     0.15800
F2287       F  0.92171221  0.76779102  0.43504588    -0.23600
H2288       H  0.93345094  0.80723808  0.38514062     0.17600
C2289       C  0.94172517  0.62766242  0.31535367    -0.27700
C2290       C  0.93272777  0.61158620  0.34729584     0.05900
C2291       C  0.93979265  0.58795524  0.35380654     0.25600
C2292       C  0.95640265  0.58130139  0.32906684    -0.12200
C2293       C  0.96634584  0.59818382  0.29756555    -0.26100
C2294       C  0.95837255  0.62117488  0.29074840     0.36400
C2295       C  0.91683391  0.62041228  0.37385379     0.06000
F2296       F  0.93168362  0.57212763  0.38459161    -0.19900
H2297       H  0.96210035  0.56343072  0.33494449     0.15800
F2298       F  0.48578483  0.65106740  0.27540584    -0.23600
H2299       H  0.93590166  0.64545232  0.30948607     0.17600
C2300       C  0.92946247  0.65146930  0.38417846     0.25600
C2301       C  0.91431403  0.65991274  0.40882822    -0.12100
C2302       C  0.88632065  0.63761146  0.42386950    -0.26200
C2303       C  0.87357979  0.60647452  0.41332854     0.36500
C2304       C  0.88878643  0.59806689  0.38859264    -0.27800
F2305       F  0.95691504  0.67357749  0.37105306    -0.19900
H2306       H  0.92483842  0.68397004  0.41654761     0.15800
F2307       F  0.84633074  0.58412983  0.42660343    -0.23600
H2308       H  0.87846015  0.57408438  0.38061873     0.17600
C2309       C  0.59264759  0.71272696  0.38269560    -0.27700
C2310       C  0.61502976  0.70662762  0.36844484     0.05900
C2311       C  0.64581209  0.72416198  0.37992169     0.25600
C2312       C  0.65390253  0.74702798  0.40535139    -0.12200
C2313       C  0.63160114  0.75305673  0.41995128    -0.26100
C2314       C  0.60078490  0.73578791  0.40817806     0.36400
C2315       C  0.60652500  0.68193694  0.34188290     0.06000
F2316       F  0.66798589  0.71851461  0.36737383    -0.19900
H2317       H  0.67776066  0.75988841  0.41388786     0.15800
F2318       F  0.57836193  0.74046137  0.42194746    -0.23600
H2319       H  0.56883984  0.69961155  0.37405516     0.17600
C2320       C  0.58249524  0.65155964  0.34793447     0.25600
C2321       C  0.57674951  0.62804060  0.32392209    -0.12100
C2322       C  0.59497745  0.63430128  0.29363655    -0.26200
C2323       C  0.61821434  0.66504166  0.28701622     0.36500
C2324       C  0.62375548  0.68846104  0.31088033    -0.27800
F2325       F  0.56555913  0.64430627  0.37782342    -0.19900
H2326       H  0.55858150  0.60471109  0.32962936     0.15800
F2327       F  0.63572260  0.67269282  0.25754078    -0.23600
H2328       H  0.64192369  0.71183247  0.30532762     0.17600
C2329       C  0.65247550  0.56836969  0.34770464    -0.27700
C2330       C  0.68097094  0.56916564  0.34465482     0.05900
C2331       C  0.68509738  0.55314036  0.31668483     0.25600
C2332       C  0.66102479  0.53593371  0.29333951    -0.12200
C2333       C  0.63238099  0.53472903  0.29655682    -0.26100
C2334       C  0.62855015  0.55175925  0.32368308     0.36400
C2335       C  0.70596791  0.58576840  0.37104234     0.06000
F2336       F  0.71262631  0.55444883  0.31140347    -0.19900
H2337       H  0.66508645  0.52368389  0.27243044     0.15800
F2338       F  0.60170634  0.55218421  0.32743764    -0.23600
H2339       H  0.64841191  0.58013743  0.36914259     0.17600
C2340       C  0.71328330  0.61513713  0.38393923     0.25600
C2341       C  0.73680768  0.63006626  0.40887372    -0.12100
C2342       C  0.75385592  0.61633679  0.42105808    -0.26200
C2343       C  0.74677034  0.58716945  0.40779790     0.36500
C2344       C  0.72281896  0.57197994  0.38362859    -0.27800
F2345       F  0.69820941  0.62977124  0.37201810    -0.19900
H2346       H  0.74178935  0.65252507  0.41851053     0.15800
F2347       F  0.76242870  0.57281207  0.41867465    -0.23600
H2348       H  0.71721649  0.54905852  0.37507220     0.17600
C2349       C  0.78755452  0.93316598  0.39870012    -0.27700
C2350       C  0.79780645  0.91666768  0.37809065     0.05900
C2351       C  0.78380677  0.88443026  0.38259535     0.25600
C2352       C  0.75970284  0.86916994  0.40666795    -0.12200
C2353       C  0.74897934  0.88563542  0.42670382    -0.26100
C2354       C  0.76330012  0.91794717  0.42243828     0.36400
C2355       C  0.82221474  0.93324980  0.35124200     0.06000
F2356       F  0.79271691  0.86747749  0.36303821    -0.19900
H2357       H  0.74932857  0.84434632  0.40947695     0.15800
F2358       F  0.75390516  0.93502540  0.44099528    -0.23600
H2359       H  0.79834669  0.95806127  0.39638161     0.17600
C2360       C  0.82082792  0.95508705  0.32894249     0.25600
C2361       C  0.84380412  0.97099959  0.30407864    -0.12100
C2362       C  0.86868131  0.96546652  0.30036155    -0.26200
C2363       C  0.86998608  0.94331851  0.32235648     0.36500
C2364       C  0.84703094  0.92755650  0.34764081    -0.27800
F2365       F  0.79680190  0.96061332  0.33050653    -0.19900
H2366       H  0.83965424  0.48324980  0.28523804     0.15800
F2367       F  0.89308329  0.93652568  0.31928964    -0.23600
H2368       H  0.84883135  0.91106233  0.36464239     0.17600
C2369       C  0.91288912  0.56794394  0.84855007    -0.27700
C2370       C  0.88459813  0.56739950  0.84547712     0.05900
C2371       C  0.86491280  0.55192190  0.81723198     0.25600
C2372       C  0.87318361  0.53663543  0.79279348    -0.12200
C2373       C  0.90120771  0.53639376  0.79606176    -0.26100
C2374       C  0.92121135  0.55250792  0.82414916     0.36400
C2375       C  0.87575290  0.58307964  0.87178417     0.06000
F2376       F  0.83786434  0.55193454  0.81304575    -0.19900
H2377       H  0.85738131  0.52484511  0.77132316     0.15800
F2378       F  0.94850784  0.55307716  0.82848936    -0.23600
H2379       H  0.92831136  0.57994127  0.87026678     0.17600
C2380       C  0.84803564  0.56666036  0.89057224     0.25600
C2381       C  0.84002076  0.58180095  0.91561166    -0.12100
C2382       C  0.85973736  0.61330337  0.92252480    -0.26200
C2383       C  0.88735687  0.62974318  0.90352944     0.36500
C2384       C  0.89524406  0.61464471  0.87832292    -0.27800
F2385       F  0.82929359  0.53583678  0.88550074    -0.19900
H2386       H  0.81884880  0.56870791  0.93035154     0.15800
F2387       F  0.90646962  0.66044053  0.90898584    -0.23600
H2388       H  0.91653767  0.62758900  0.86375167     0.17600
C2389       C  0.86720733  0.54492320  0.16744796    -0.27700
C2390       C  0.89134436  0.56638277  0.14630816     0.05900
C2391       C  0.92144824  0.57173621  0.15193476     0.25600
C2392       C  0.92707624  0.55545109  0.17806938    -0.12200
C2393       C  0.90280326  0.53356487  0.19897671    -0.26100
C2394       C  0.87272187  0.52856334  0.19346924     0.36400
C2395       C  0.88464655  0.58302984  0.11867699     0.06000
F2396       F  0.94523292  0.59207972  0.13161401    -0.19900
H2397       H  0.95049652  0.55995951  0.18181378     0.15800
F2398       F  0.84842395  0.50754742  0.21265970    -0.23600
H2399       H  0.84392456  0.54084983  0.16381156     0.17600
C2400       C  0.86030804  0.56667287  0.09490028     0.25600
C2401       C  0.85235616  0.58257990  0.07074002    -0.12100
C2402       C  0.86860588  0.61508247  0.06958476    -0.26200
C2403       C  0.89372739  0.63142635  0.09260422     0.36500
C2404       C  0.90151946  0.61543047  0.11702253    -0.27800
F2405       F  0.84428043  0.53526823  0.09495895    -0.19900
H2406       H  0.83332540  0.56930808  0.05290751     0.15800
F2407       F  0.91038036  0.66278179  0.09210805    -0.23600
H2408       H  0.92026469  0.62840896  0.13529623     0.17600
C2409       C  0.67438063  0.63841116  0.83802486    -0.27700
C2410       C  0.67996959  0.61524679  0.85104318     0.05900
C2411       C  0.66031589  0.58435807  0.84056090     0.25600
C2412       C  0.63590070  0.57705910  0.81725944    -0.12200
C2413       C  0.63097099  0.60040788  0.80356683    -0.26100
C2414       C  0.65032926  0.63120855  0.81437179     0.36400
C2415       C  0.70565396  0.62338695  0.87628744     0.06000
F2416       F  0.66529580  0.56133784  0.85188642    -0.19900
H2417       H  0.62151264  0.55327588  0.80895048     0.15800
F2418       F  0.64580379  0.65438149  0.80243760    -0.23600
H2419       H  0.68851680  0.66218972  0.84643317     0.17600
C2420       C  0.73512751  0.64935953  0.87091748     0.25600
C2421       C  0.75850990  0.65744717  0.89593800    -0.12100
C2422       C  0.75316786  0.63945970  0.92627139    -0.26200
C2423       C  0.72397079  0.61315430  0.93123178     0.36500
C2424       C  0.70044655  0.60552943  0.90671278    -0.27800
F2425       F  0.74153172  0.66663376  0.84126574    -0.19900
H2426       H  0.78093506  0.67757276  0.89139662     0.15800
F2427       F  0.71773041  0.59531815  0.96039451    -0.23600
H2428       H  0.67786643  0.58588699  0.91193508     0.17600
C2429       C  0.93033454  0.84507398  0.84749393    -0.27700
C2430       C  0.94221882  0.82584475  0.85747958     0.05900
C2431       C  0.97019535  0.83087896  0.84295876     0.25600
C2432       C  0.98526075  0.85392149  0.81777029    -0.12200
C2433       C  0.97285483  0.87249069  0.80688559    -0.26100
C2434       C  0.94557308  0.86835755  0.82253155     0.36400
C2435       C  0.92472589  0.79988046  0.88196154     0.06000
F2436       F  0.98292397  0.81350168  0.85311955    -0.19900
H2437       H  0.00655193  0.85708154  0.80650197     0.15800
F2438       F  0.93274585  0.88564071  0.81243878    -0.23600
H2439       H  0.90868938  0.84140304  0.85823431     0.17600
C2440       C  0.91438684  0.80479720  0.91429632     0.25600
C2441       C  0.89715566  0.77994632  0.93674629    -0.12100
C2442       C  0.89033832  0.74993451  0.92756239    -0.26200
C2443       C  0.90074181  0.74495282  0.89531736     0.36500
C2444       C  0.91766102  0.76977621  0.87263136    -0.27800
F2445       F  0.92165134  0.83372380  0.92454566    -0.19900
H2446       H  0.88974838  0.78426375  0.96179641     0.15800
F2447       F  0.89390562  0.71606169  0.88542094    -0.23600
H2448       H  0.92499810  0.76546734  0.84754190     0.17600
C2449       C  0.71656648  0.64551336  0.10400573    -0.27700
C2450       C  0.70575453  0.61804959  0.12328618     0.05900
C2451       C  0.71905602  0.59928439  0.11761976     0.25600
C2452       C  0.74288239  0.60810818  0.09312945    -0.12200
C2453       C  0.75377239  0.63572885  0.07387889    -0.26100
C2454       C  0.74038542  0.65445428  0.07980072     0.36400
C2455       C  0.68114465  0.60993043  0.14969908     0.06000
F2456       F  0.70952363  0.57283790  0.13627193    -0.19900
H2457       H  0.75270801  0.59323795  0.08915344     0.15800
F2458       F  0.75017194  0.68149914  0.06228547    -0.23600
H2459       H  0.70642447  0.66014871  0.10766003     0.17600
C2460       C  0.68385442  0.63207259  0.17433217     0.25600
C2461       C  0.66001120  0.62538040  0.19781337    -0.12100
C2462       C  0.63278924  0.59641396  0.19755085    -0.26200
C2463       C  0.63030631  0.57389670  0.17328147     0.36500
C2464       C  0.65433433  0.58071356  0.14960045    -0.27800
F2465       F  0.70977910  0.66025124  0.17591860    -0.19900
H2466       H  0.66303156  0.64320683  0.21622542     0.15800
F2467       F  0.60472322  0.54547468  0.17202645    -0.23600
H2468       H  0.65170965  0.56338664  0.13064285     0.17600
C2469       C  0.93304964  0.79013125  0.09879240    -0.27700
C2470       C  0.91580188  0.79528996  0.12417465     0.05900
C2471       C  0.88339528  0.77746955  0.12329491     0.25600
C2472       C  0.86869172  0.75439702  0.09784973    -0.12200
C2473       C  0.88603548  0.74879219  0.07283365    -0.26100
C2474       C  0.91846834  0.76722930  0.07336452     0.36400
C2475       C  0.93211229  0.81935043  0.15125748     0.06000
F2476       F  0.86600983  0.78181985  0.14751813    -0.19900
H2477       H  0.84372721  0.74072864  0.09794252     0.15800
F2478       F  0.93624579  0.76361951  0.04901146    -0.23600
H2479       H  0.95799418  0.80411138  0.09851066     0.17600
C2480       C  0.95620183  0.81978720  0.17096845     0.25600
C2481       C  0.97293774  0.84361654  0.19483978    -0.12100
C2482       C  0.96627373  0.86772029  0.19939086    -0.26200
C2483       C  0.94177143  0.86695951  0.17999582     0.36500
C2484       C  0.92481021  0.84288485  0.15632948    -0.27800
F2485       F  0.96348921  0.79705248  0.16720191    -0.19900
H2486       H  0.99150509  0.84336993  0.20942368     0.15800
F2487       F  0.93413354  0.88939039  0.18373041    -0.23600
H2488       H  0.90643743  0.84305929  0.14123959     0.17600
C2489       C  0.58170679  0.66188954  0.83747670    -0.27700
C2490       C  0.57728936  0.68756201  0.83896500     0.05900
C2491       C  0.55553616  0.68885183  0.81668261     0.25600
C2492       C  0.53748199  0.66419435  0.79440560    -0.12200
C2493       C  0.54056487  0.63756044  0.79392201    -0.26100
C2494       C  0.56337932  0.63692897  0.81534575     0.36400
C2495       C  0.59271210  0.71128674  0.86636951     0.06000
F2496       F  0.55125890  0.71374097  0.81711238    -0.19900
H2497       H  0.52051856  0.66581950  0.77809841     0.15800
F2498       F  0.56748558  0.61200499  0.81582633    -0.23600
H2499       H  0.59840426  0.66058869  0.85461922     0.17600
C2500       C  0.57478310  0.71532950  0.89185814     0.25600
C2501       C  0.58886888  0.73746014  0.91807474    -0.12100
C2502       C  0.62116381  0.75599134  0.91959660    -0.26200
C2503       C  0.63921202  0.75204163  0.89387173     0.36500
C2504       C  0.62497788  0.72965451  0.86757291    -0.27800
F2505       F  0.54356461  0.69726373  0.89185647    -0.19900
H2506       H  0.57435053  0.73974798  0.93755449     0.15800
F2507       F  0.67044663  0.76990476  0.89385596    -0.23600
H2508       H  0.63906143  0.72680867  0.84796348     0.17600
C2509       C  0.56497035  0.68806464  0.18167611    -0.27700
C2510       C  0.57348515  0.68045898  0.14977838     0.05900
C2511       C  0.56719461  0.64993951  0.14436457     0.25600
C2512       C  0.55091951  0.62711826  0.16964523    -0.12200
C2513       C  0.54074488  0.63437108  0.20074031    -0.26100
C2514       C  0.54900552  0.66544009  0.20703630     0.36400
C2515       C  0.58792200  0.70436557  0.12206653     0.06000
F2516       F  0.57543408  0.64186379  0.11395161    -0.19900
H2517       H  0.54536579  0.60356345  0.16428558     0.15800
F2518       F  0.54172117  0.67415726  0.23764911    -0.23600
H2519       H  0.57047347  0.71164683  0.18681284     0.17600
C2520       C  0.57369774  0.72124043  0.11089375     0.25600
C2521       C  0.58771988  0.74441263  0.08551592    -0.12100
C2522       C  0.61609441  0.75111946  0.07050397    -0.26200
C2523       C  0.63012829  0.73389291  0.08144087     0.36500
C2524       C  0.61612406  0.71080193  0.10700342    -0.27800
F2525       F  0.54587148  0.71486113  0.12403639    -0.19900
H2526       H  0.57614342  0.75692710  0.07736153     0.15800
F2527       F  0.65762597  0.73961793  0.06795749    -0.23600
H2528       H  0.62754934  0.69821518  0.11544157     0.17600
C2529       C  0.64451412  0.92771284  0.88755578    -0.27700
C2530       C  0.61433318  0.91272850  0.87412197     0.05900
C2531       C  0.59303739  0.88304865  0.88644158     0.25600
C2532       C  0.60212380  0.86861236  0.91160543    -0.12200
C2533       C  0.63242319  0.88365944  0.92502231    -0.26100
C2534       C  0.65355214  0.91348184  0.91275910     0.36400
C2535       C  0.60610580  0.92826493  0.84651542     0.06000
F2536       F  0.56379499  0.86773585  0.87354311    -0.19900
H2537       H  0.58539696  0.84571821  0.92073756     0.15800
F2538       F  0.68315244  0.92880562  0.92458350    -0.23600
H2539       H  0.66120471  0.95063953  0.87844624     0.17600
C2540       C  0.58081181  0.93311333  0.85023277     0.25600
C2541       C  0.57535832  0.95038070  0.82513356    -0.12100
C2542       C  0.59514893  0.96330343  0.79611377    -0.26200
C2543       C  0.61995853  0.95760609  0.79208394     0.36500
C2544       C  0.62524000  0.94026549  0.81705433    -0.27800
F2545       F  0.56229418  0.92246816  0.87887794    -0.19900
H2546       H  0.55602705  0.95425456  0.82896292     0.15800
F2547       F  0.63929044  0.96876103  0.76416458    -0.23600
H2548       H  0.64468195  0.93648675  0.81361711     0.17600
C2549       C  0.78269009  0.90674118  0.87864378    -0.27700
C2550       C  0.79662028  0.88853870  0.87334224     0.05900
C2551       C  0.78784774  0.86241524  0.89457319     0.25600
C2552       C  0.76492897  0.85408397  0.91981961    -0.12200
C2553       C  0.75026327  0.87166620  0.92482741    -0.26100
C2554       C  0.75956878  0.89838157  0.90408136     0.36400
C2555       C  0.81979609  0.89597415  0.84533939     0.06000
F2556       F  0.80173931  0.84503037  0.89109347    -0.19900
H2557       H  0.75868554  0.83366120  0.93552562     0.15800
F2558       F  0.74627127  0.91625911  0.90806424    -0.23600
H2559       H  0.78929680  0.92706073  0.86258824     0.17600
C2560       C  0.81546314  0.87338052  0.82048398     0.25600
C2561       C  0.83874364  0.87867279  0.79669909    -0.12100
C2562       C  0.86693442  0.90667454  0.79692329    -0.26200
C2563       C  0.87071275  0.92999626  0.82083549     0.36500
C2564       C  0.84721809  0.92459653  0.84472200    -0.27800
F2565       F  0.78871594  0.84589051  0.81952999    -0.19900
H2566       H  0.83470520  0.86042184  0.77839481     0.15800
F2567       F  0.89721723  0.95768672  0.82189318    -0.23600
H2568       H  0.85088626  0.94235186  0.86361366     0.17600
C2569       C  0.59551852  0.88694626  0.10793697    -0.27700
C2570       C  0.61792796  0.91454659  0.12346903     0.05900
C2571       C  0.64899092  0.92724128  0.11371354     0.25600
C2572       C  0.65750658  0.91233076  0.08893739    -0.12200
C2573       C  0.63520011  0.88458559  0.07330191    -0.26100
C2574       C  0.60397207  0.87198153  0.08302799     0.36400
C2575       C  0.60903396  0.92994688  0.15020487     0.06000
F2576       F  0.67098171  0.95446441  0.12757976    -0.19900
H2577       H  0.68161116  0.92281474  0.08164473     0.15800
F2578       F  0.58160654  0.84518462  0.06875188    -0.23600
H2579       H  0.57148125  0.87684520  0.11540317     0.17600
C2580       C  0.58760414  0.93963078  0.14245606     0.25600
C2581       C  0.58071131  0.95568546  0.16756350    -0.12100
C2582       C  0.59522044  0.96240484  0.20060585    -0.26200
C2583       C  0.61593619  0.95175101  0.20862931     0.36500
C2584       C  0.62276656  0.93572842  0.18352990    -0.27800
F2585       F  0.57436860  0.93470299  0.11017098    -0.19900
H2586       H  0.56475355  0.96369275  0.16075252     0.15800
F2587       F  0.62032404  0.44788907  0.24169758    -0.23600
H2588       H  0.63895079  0.92791506  0.19001359     0.17600
C2589       C  0.78553170  0.90113601  0.11390583    -0.27700
C2590       C  0.79438998  0.87960215  0.12435119     0.05900
C2591       C  0.77900610  0.84966376  0.10990758     0.25600
C2592       C  0.75546581  0.84162333  0.08529659    -0.12200
C2593       C  0.74698484  0.86329227  0.07424627    -0.26100
C2594       C  0.76208936  0.89316338  0.08902350     0.36400
C2595       C  0.81938461  0.88815224  0.15050377     0.06000
F2596       F  0.78739940  0.82842632  0.11872111    -0.19900
H2597       H  0.74440794  0.81857682  0.07417451     0.15800
F2598       F  0.75405356  0.91457589  0.07977871    -0.23600
H2599       H  0.79665781  0.92411053  0.12521758     0.17600
C2600       C  0.84819381  0.91522582  0.14681218     0.25600
C2601       C  0.87191729  0.92200581  0.17099454    -0.12100
C2602       C  0.86744823  0.90178255  0.19902520    -0.26200
C2603       C  0.83827469  0.87499638  0.20294636     0.36500
C2604       C  0.81461475  0.86851757  0.17906399    -0.27800
F2605       F  0.85380858  0.93447990  0.11910844    -0.19900
H2606       H  0.89401810  0.94275331  0.16725299     0.15800
F2607       F  0.83231242  0.85486591  0.22981876    -0.23600
H2608       H  0.79241072  0.84788440  0.18282505     0.17600
loop_ 
_geom_bond_atom_site_label_1 
_geom_bond_atom_site_label_2 
_geom_bond_distance 
_geom_bond_site_symmetry_2 
_ccdc_geom_bond_type 
O1           C16   1.261       .  A
O1           Al9   1.910   1_554  S
C2           O12   1.261       .  A
C2            O3   1.259       .  A
C2          C577   1.479       .  S
O3           Al5   1.894       .  S
O4            C6   1.261       .  A
O4           Al5   1.899       .  S
Al5          O13   1.912   1_556  S
Al5          O15   1.892   1_556  S
Al5          O14   1.788       .  S
C6           O19   1.261       .  A
C6          C546   1.481       .  S
O7           C17   1.263       .  A
O7           Al9   1.908       .  S
O8           C21   1.262       .  A
O8          Al18   1.916   1_554  S
Al9          O22   1.897   1_556  S
Al9          O19   1.904       .  S
Al9          O14   1.786       .  S
O10          C17   1.260       .  A
O10         Al18   1.899       .  S
O11          C20   1.260       .  A
O11         Al18   1.888   1_554  S
O12         Al18   1.906       .  S
O13          C20   1.261       .  A
O14         Al18   1.786       .  S
O15          C16   1.261       .  A
C16         C566   1.477       .  S
C17         C597   1.484       .  S
C20         C617   1.480       .  S
C21          O22   1.261       .  A
C21         C637   1.487       .  S
O23          C38   1.261       .  A
O23         Al31   1.898   1_554  S
C24          O34   1.263       .  A
C24          O25   1.264       .  A
C24         C466   1.477       .  S
O25         Al27   1.917       .  S
O26          C28   1.259       .  A
O26         Al27   1.886       .  S
Al27         O35   1.900   1_556  S
Al27         O37   1.914   1_556  S
Al27         O36   1.782       .  S
C28          O41   1.262       .  A
C28         C426   1.472       .  S
O29          C39   1.258       .  A
O29         Al31   1.891       .  S
O30          C43   1.263       .  A
O30         Al40   1.899   1_554  S
Al31         O44   1.917   1_556  S
Al31         O41   1.909       .  S
Al31         O36   1.778       .  S
O32          C39   1.261       .  A
O32         Al40   1.914       .  S
O33          C42   1.263       .  A
O33         Al40   1.911   1_554  S
O34         Al40   1.901       .  S
O35          C42   1.261       .  A
O36         Al40   1.781       .  S
O37          C38   1.264       .  A
C38         C446   1.483       .  S
C39         C486   1.469       .  S
C42         C497   1.482       .  S
C43          O44   1.265       .  A
C43         C517   1.481       .  S
C45        C1375   1.493       .  S
C45          C46   1.420       .  A
C45        C1354   1.419       .  A
C46          C53   1.480       .  S
C46         C699   1.419   1_545  A
C47          C77   1.492       .  S
C47         C698   1.417       .  A
C47        C1352   1.416       .  A
C48          C83   1.484       .  S
C48        C1351   1.414       .  A
C48         C701   1.420   1_655  A
C49          C61   1.485       .  S
C49          C50   1.418       .  A
C49         C700   1.417   1_545  A
C50          C65   1.487       .  S
C50        C1349   1.420   1_455  A
C51         C437   1.483       .  S
C51          N52   1.356       .  A
C51          N56   1.358       .  A
N52          C53   1.357       .  A
C53         N706   1.358   1_545  A
N54          C55   1.358       .  A
N54         C705   1.361       .  A
C55         C406   1.488       .  S
C55         N708   1.358       .  A
N56         C707   1.360   1_545  A
C57         C626   1.470       .  S
C57          N62   1.354       .  A
C57         N710   1.356       .  A
N58          C59   1.358   1_565  A
N58         C709   1.356       .  A
C59         C377   1.486       .  S
C59          N60   1.359       .  A
N60          C61   1.360       .  A
C61         N714   1.357   1_545  A
N62         C713   1.357       .  A
C63         C506   1.484       .  S
C63          N64   1.357       .  A
C63          N68   1.357       .  A
N64          C65   1.360       .  A
C65          N66   1.360       .  A
N66          C67   1.358       .  A
C67         C366   1.487       .  S
C67          N68   1.356       .  A
C69         C557   1.490       .  S
C69          N70   1.359       .  A
C69          N74   1.356   1_455  A
N70          C71   1.362   1_455  A
C71        C1349   1.495       .  S
C71        N1376   1.364       .  A
N72          C73   1.361       .  A
N72        C1375   1.364       .  A
C73         C337   1.490       .  S
C73        N1378   1.354       .  A
N74        C1377   1.356       .  A
C75         C317   1.479       .  S
C75          N76   1.357       .  A
C75          N80   1.355       .  A
N76          C77   1.360       .  A
C77          N78   1.363       .  A
N78          C79   1.360       .  A
C79         C646   1.480       .  S
C79          N80   1.355       .  A
C81         C526   1.480       .  S
C81          N82   1.358       .  A
C81        N1390   1.356       .  A
N82        C1387   1.359       .  A
C83          N84   1.357   1_655  A
C83        N1386   1.361       .  A
N84          C85   1.356       .  A
C85         C297   1.481       .  S
C85          N86   1.356   1_455  A
N86        C1385   1.355       .  A
O87         C102   1.262       .  A
O87         Al95   1.914       .  S
C88          O98   1.260       .  A
C88          O89   1.257       .  A
C88         C246   1.477       .  S
O89         Al91   1.890       .  S
O90          C92   1.260       .  A
O90         Al91   1.903       .  S
Al91         O99   1.916       .  S
Al91        O101   1.884       .  S
Al91        O100   1.789       .  S
C92         O105   1.259       .  A
C92         C266   1.473       .  S
O93         C103   1.264       .  A
O93         Al95   1.915       .  S
O94         C107   1.258       .  A
O94        Al104   1.900       .  S
Al95        O108   1.892       .  S
Al95        O105   1.894       .  S
Al95        O100   1.791       .  S
O96         C103   1.261       .  A
O96        Al104   1.900       .  S
O97         C106   1.261       .  A
O97        Al104   1.898       .  S
O98        Al104   1.898       .  S
O99         C106   1.263       .  A
O100       Al104   1.793       .  S
O101        C102   1.259       .  A
C102        C386   1.480       .  S
C103        C277   1.485       .  S
C106        C346   1.482       .  S
C107        O108   1.259       .  A
C107        C326   1.478       .  S
O109        C124   1.259       .  A
O109       Al117   1.891       .  S
C110        O120   1.262       .  A
C110        O111   1.261       .  A
C110        C306   1.477       .  S
O111       Al113   1.897       .  S
O112        C114   1.262       .  A
O112       Al113   1.899       .  S
Al113       O121   1.901       .  S
Al113       O123   1.889       .  S
Al113       O122   1.783       .  S
C114        O127   1.264       .  A
C114        C357   1.483       .  S
O115        C125   1.259       .  A
O115       Al117   1.897       .  S
O116        C129   1.263       .  A
O116       Al126   1.897       .  S
Al117       O130   1.913       .  S
Al117       O127   1.911       .  S
Al117       O122   1.784       .  S
O118        C125   1.262       .  A
O118       Al126   1.912       .  S
O119        C128   1.264       .  A
O119       Al126   1.927       .  S
O120       Al126   1.900       .  S
O121        C128   1.260       .  A
O122       Al126   1.785       .  S
O123        C124   1.257       .  A
C124        C177   1.468       .  S
C125        C397   1.485       .  S
C128        C206   1.478       .  S
C129        O130   1.264       .  A
C129        C226   1.483       .  S
C131        C797   1.489       .  S
C131        C784   1.423   1_545  A
C131       C1440   1.421       .  A
C132        C171   1.495       .  S
C132        C783   1.420       .  A
C132       C1437   1.415       .  A
C133       C1469   1.483       .  S
C133       C1436   1.415       .  A
C133        C786   1.417   1_655  A
C134        C793   1.486       .  S
C134        C135   1.411   1_565  A
C134        C785   1.416   1_455  A
C135        C159   1.478       .  S
C135        C136   1.417   1_455  A
C136       C1457   1.488   1_655  S
C136       C1435   1.418   1_545  A
C137        C586   1.482       .  S
C137        N138   1.357       .  A
C137        N142   1.357       .  A
N138        C791   1.355       .  A
C139        C257   1.470       .  S
C139        N140   1.357       .  A
C139        N790   1.356   1_545  A
N140        C793   1.361   1_545  A
C141        C786   1.484       .  S
C141        N142   1.358       .  A
C141        N792   1.361       .  A
C143        C217   1.475       .  S
C143        N144   1.358       .  A
C143        N148   1.353       .  A
N144        C145   1.362       .  A
C145        C783   1.484       .  S
C145        N798   1.359       .  A
N146        C147   1.360       .  A
N146        C797   1.363       .  A
C147        C417   1.483       .  S
C147        N800   1.352   1_545  A
N148        C799   1.353       .  A
C149        C237   1.481       .  S
C149        N150   1.355       .  A
C149        N154   1.357       .  A
N150       C1455   1.354       .  A
C151        C537   1.484       .  S
C151        N152   1.358       .  A
C151       N1454   1.355       .  A
N152       C1457   1.362       .  A
C153       C1440   1.491       .  S
C153        N154   1.359       .  A
C153       N1456   1.363       .  A
C155        C186   1.477       .  S
C155        N156   1.354       .  A
C155        N160   1.355       .  A
N156        C157   1.352       .  A
C157        C457   1.471       .  S
C157        N158   1.357       .  A
N158        C159   1.360       .  A
C159        N160   1.358       .  A
C161        C477   1.474       .  S
C161        N162   1.355       .  A
C161        N166   1.356       .  A
N162       C1467   1.355       .  A
C163        C197   1.482       .  S
C163        N164   1.360       .  A
C163       N1466   1.357   1_455  A
N164       C1469   1.360   1_455  A
C165       C1437   1.481       .  S
C165        N166   1.358       .  A
C165       N1468   1.360       .  A
C167        C286   1.489       .  S
C167        N168   1.356       .  A
C167        N172   1.361       .  A
N168        C169   1.356       .  A
C169        C606   1.486       .  S
C169        N170   1.357       .  A
N170        C171   1.360       .  A
C171        N172   1.363       .  A
C173        C174   1.400       .  A
C173        C178   1.394       .  A
C173        H183   1.084       .  S
C174        C179   1.469       .  S
C174        C175   1.405       .  A
C175        C176   1.392       .  A
C175        F180   1.358       .  S
C176        C177   1.401       .  A
C176        H181   1.084       .  S
C177        C178   1.409       .  A
C178        F182   1.358       .  S
C179        C184   1.400       .  A
C179        C188   1.402       .  A
C184        C185   1.388       .  A
C184        F189   1.358       .  S
C185        C186   1.406       .  A
C185        H190   1.083       .  S
C186        C187   1.411       .  A
C187        C188   1.398       .  A
C187        F191   1.357       .  S
C188        H192   1.084       .  S
C193        C194   1.407       .  A
C193        C198   1.399       .  A
C193        H203   1.082       .  S
C194        C199   1.491       .  S
C194        C195   1.409       .  A
C195        C196   1.399       .  A
C195        F200   1.358       .  S
C196        C197   1.406       .  A
C196        H201   1.083   1_455  S
C197        C198   1.405       .  A
C198        F202   1.356       .  S
C199        C204   1.409       .  A
C199        C208   1.408       .  A
C204        C205   1.398       .  A
C204        F209   1.357       .  S
C205        C206   1.403       .  A
C205        H210   1.084       .  S
C206        C207   1.405       .  A
C207        C208   1.401       .  A
C207        F211   1.358       .  S
C208        H212   1.083       .  S
C213        C214   1.401       .  A
C213        C218   1.392       .  A
C213        H223   1.083       .  S
C214        C219   1.480       .  S
C214        C215   1.409       .  A
C215        C216   1.401       .  A
C215        F220   1.357       .  S
C216        C217   1.404       .  A
C216        H221   1.083       .  S
C217        C218   1.408       .  A
C218        F222   1.358       .  S
C219        C224   1.403       .  A
C219        C228   1.405       .  A
C224        C225   1.397       .  A
C224        F229   1.358       .  S
C225        C226   1.409       .  A
C225        H230   1.083       .  S
C226        C227   1.409       .  A
C227        C228   1.397       .  A
C227        F231   1.357       .  S
C228        H232   1.083       .  S
C233        C234   1.403       .  A
C233        C238   1.397       .  A
C233        H243   1.083       .  S
C234        C239   1.477       .  S
C234        C235   1.404       .  A
C235        C236   1.392       .  A
C235        F240   1.358       .  S
C236        C237   1.407       .  A
C236        H241   1.083       .  S
C237        C238   1.410       .  A
C238        F242   1.357       .  S
C239        C244   1.405       .  A
C239        C248   1.404       .  A
C244        C245   1.391       .  A
C244        F249   1.358       .  S
C245        C246   1.405       .  A
C245        H250   1.084       .  S
C246        C247   1.409       .  A
C247        C248   1.398       .  A
C247        F251   1.357       .  S
C248        H252   1.084       .  S
C253        C254   1.407       .  A
C253        C258   1.395       .  A
C253        H263   1.083       .  S
C254        C259   1.491       .  S
C254        C255   1.412       .  A
C255        C256   1.401       .  A
C255        F260   1.357       .  S
C256        C257   1.401       .  A
C256        H261   1.083       .  S
C257        C258   1.403       .  A
C258        F914   1.356   1_545  S
C259        C264   1.411       .  A
C259        C268   1.407       .  A
F262        C910   1.357       .  S
C264        C265   1.396       .  A
C264        F269   1.357       .  S
C265        C266   1.401       .  A
C265        H270   1.084       .  S
C266        C267   1.405       .  A
C267        C268   1.399       .  A
C267        F271   1.357       .  S
C268        H272   1.083       .  S
C273        C274   1.407       .  A
C273        C278   1.402       .  A
C273        H283   1.083       .  S
C274        C279   1.491       .  S
C274        C275   1.409       .  A
C275        C276   1.397       .  A
C275        F280   1.357       .  S
C276        C277   1.405       .  A
C276        H281   1.083       .  S
C277        C278   1.409       .  A
C278        F282   1.357       .  S
C279        C284   1.407       .  A
C279        C288   1.407       .  A
C284        C285   1.397       .  A
C284        F289   1.358       .  S
C285        C286   1.409       .  A
C285        H290   1.083       .  S
C286        C287   1.409       .  A
C287        C288   1.401       .  A
C287        F291   1.357       .  S
C288        H292   1.083       .  S
C293        C294   1.403       .  A
C293        C298   1.399       .  A
C293        H303   1.083       .  S
C294        C299   1.477       .  S
C294        C295   1.404       .  A
C295        C296   1.391       .  A
C295        F300   1.358       .  S
C296        C297   1.406       .  A
C296        H301   1.083       .  S
C297        C298   1.412       .  A
C298        F302   1.357       .  S
C299        C304   1.406       .  A
C299        C308   1.401       .  A
C304        C305   1.399       .  A
C304        F309   1.357       .  S
C305        C306   1.406       .  A
C305        H310   1.083       .  S
C306        C307   1.410       .  A
C307        C308   1.390       .  A
C307        F311   1.358       .  S
C308        H312   1.083       .  S
C313        C314   1.401       .  A
C313        C318   1.394       .  A
C313        H323   1.084       .  S
C314        C319   1.477       .  S
C314        C315   1.406       .  A
C315        C316   1.398       .  A
C315        F320   1.357       .  S
C316        C317   1.406       .  A
C316        H321   1.083       .  S
C317        C318   1.410       .  A
C318        F322   1.358       .  S
C319        C324   1.406       .  A
C319        C328   1.402       .  A
C324        C325   1.395       .  A
C324        F329   1.358       .  S
C325        C326   1.404       .  A
C325        H330   1.083       .  S
C326        C327   1.411       .  A
C327        C328   1.397       .  A
C327        F331   1.358       .  S
C328        H332   1.083       .  S
C333        C334   1.402       .  A
C333        C338   1.394       .  A
C333        H343   1.083       .  S
C334        C339   1.489       .  S
C334        C335   1.409       .  A
C335        C336   1.403       .  A
C335        F340   1.357       .  S
C336        C337   1.408       .  A
C336        H341   1.083       .  S
C337        C338   1.413       .  A
C338       F1646   1.357       .  S
C339        C344   1.410       .  A
C339        C348   1.405       .  A
F342       C1642   1.356       .  S
C344        C345   1.397       .  A
C344        F349   1.358       .  S
C345        C346   1.403       .  A
C345        H350   1.084       .  S
C346        C347   1.410       .  A
C347        C348   1.402       .  A
C347        F351   1.358       .  S
C348        H352   1.083       .  S
C353        C354   1.405       .  A
C353        C358   1.402       .  A
C353        H363   1.083       .  S
C354        C359   1.485       .  S
C354        C355   1.407       .  A
C355        C356   1.395       .  A
C355        F360   1.358       .  S
C356        C357   1.405       .  A
C356        H361   1.083       .  S
C357        C358   1.410       .  A
C358        F362   1.357       .  S
C359        C364   1.407       .  A
C359        C368   1.402       .  A
C364        C365   1.401       .  A
C364        F369   1.357       .  S
C365        C366   1.408       .  A
C365        H370   1.083       .  S
C366        C367   1.411       .  A
C367        C368   1.395       .  A
C367        F371   1.357       .  S
C368        H372   1.084       .  S
C373        C374   1.405       .  A
C373        C378   1.401       .  A
C373        H383   1.083       .  S
C374        C379   1.485       .  S
C374        C375   1.406       .  A
C375        C376   1.393       .  A
C375        F380   1.358       .  S
C376        C377   1.406       .  A
C376        H381   1.083       .  S
C377        C378   1.411       .  A
C378        F382   1.357       .  S
C379        C384   1.408       .  A
C379        C388   1.404       .  A
C384        C385   1.401       .  A
C384        F389   1.357       .  S
C385        C386   1.407       .  A
C385        H390   1.083       .  S
C386        C387   1.408       .  A
C387        C388   1.394       .  A
C387        F391   1.358       .  S
C388        H392   1.083       .  S
C393        C394   1.404       .  A
C393        C398   1.393       .  A
C393        H403   1.083       .  S
C394        C399   1.488       .  S
C394        C395   1.408       .  A
C395        C396   1.403       .  A
C395        F400   1.357       .  S
C396        C397   1.409       .  A
C396        H401   1.083       .  S
C397        C398   1.408       .  A
C398        F402   1.357       .  S
C399        C404   1.406       .  A
C399        C408   1.407       .  A
C404        C405   1.392       .  A
C404        F409   1.358       .  S
C405        C406   1.405       .  A
C405       H1062   1.083       .  S
C406        C407   1.412       .  A
C407        C408   1.404       .  A
C407        F411   1.357       .  S
C408        H412   1.083       .  S
H410       C1057   1.083       .  S
C413        C414   1.405       .  A
C413        C418   1.400       .  A
C413        H423   1.084       .  S
C414        C419   1.476       .  S
C414        C415   1.401       .  A
C415        C416   1.391       .  A
C415        F420   1.358       .  S
C416        C417   1.409       .  A
C416        H421   1.083       .  S
C417        C418   1.409       .  A
C418        F422   1.357       .  S
C419        C424   1.407       .  A
C419        C428   1.402       .  A
C424        C425   1.395       .  A
C424        F429   1.358       .  S
C425        C426   1.404       .  A
C425        H430   1.084       .  S
C426        C427   1.407       .  A
C427        C428   1.395       .  A
C427        F431   1.358       .  S
C428        H432   1.084       .  S
C433        C434   1.404       .  A
C433        C438   1.396       .  A
C433        H443   1.083       .  S
C434        C439   1.482       .  S
C434        C435   1.405       .  A
C435        C436   1.400       .  A
C435        F440   1.357       .  S
C436        C437   1.408       .  A
C436        H441   1.083       .  S
C437        C438   1.409       .  A
C438        F442   1.357       .  S
C439        C444   1.405       .  A
C439        C448   1.405       .  A
C444        C445   1.395       .  A
C444        F449   1.358       .  S
C445        C446   1.406       .  A
C445        H450   1.084       .  S
C446        C447   1.410       .  A
C447        C448   1.401       .  A
C447        F451   1.357       .  S
C448        H452   1.083       .  S
C453        C454   1.404       .  A
C453        C458   1.394       .  A
C453        H463   1.083       .  S
C454        C459   1.484       .  S
C454        C455   1.410       .  A
C455        C456   1.399       .  A
C455        F460   1.357       .  S
C456        C457   1.402       .  A
C456        H461   1.084       .  S
C457        C458   1.407       .  A
C458        F462   1.358       .  S
C459        C464   1.409       .  A
C459        C468   1.403       .  A
C464        C465   1.399       .  A
C464        F469   1.358       .  S
C465        C466   1.404       .  A
C465        H470   1.083       .  S
C466        C467   1.408       .  A
C467        C468   1.396       .  A
C467        F471   1.358       .  S
C468        H472   1.083       .  S
C473        C474   1.405       .  A
C473        C478   1.397       .  A
C473        H483   1.083       .  S
C474        C479   1.481       .  S
C474        C475   1.407       .  A
C475        C476   1.394       .  A
C475        F480   1.358       .  S
C476        C477   1.404       .  A
C476        H481   1.083       .  S
C477        C478   1.406       .  A
C478        F482   1.357       .  S
C479        C484   1.407       .  A
C479        C488   1.406       .  A
C484        C485   1.396       .  A
C484        F489   1.358       .  S
C485        C486   1.404       .  A
C485        H490   1.084       .  S
C486        C487   1.403       .  A
C487        C488   1.395       .  A
C487        F491   1.358       .  S
C488        H492   1.083       .  S
C493        C494   1.402       .  A
C493        C498   1.392       .  A
C493        H503   1.083       .  S
C494        C499   1.482       .  S
C494        C495   1.407       .  A
C495        C496   1.402       .  A
C495        F500   1.357       .  S
C496        C497   1.408       .  A
C496        H501   1.083       .  S
C497        C498   1.410       .  A
C498        F502   1.358       .  S
C499        C504   1.405       .  A
C499        C508   1.404       .  A
C504        C505   1.392       .  A
C504        F509   1.358       .  S
C505        C506   1.405       .  A
C505        H510   1.083       .  S
C506        C507   1.411       .  A
C507        C508   1.402       .  A
C507        F511   1.356       .  S
C508        H512   1.083       .  S
C513        C514   1.402       .  A
C513        C518   1.395       .  A
C513        H523   1.083       .  S
C514        C519   1.480       .  S
C514        C515   1.406       .  A
C515        C516   1.399       .  A
C515        F520   1.357       .  S
C516        C517   1.406       .  A
C516        H521   1.083       .  S
C517        C518   1.410       .  A
C518        F522   1.358       .  S
C519        C524   1.405       .  A
C519        C528   1.403       .  A
C524        C525   1.395       .  A
C524        F529   1.358       .  S
C525        C526   1.406       .  A
C525        H530   1.084       .  S
C526        C527   1.409       .  A
C527        C528   1.398       .  A
C527        F531   1.356       .  S
C528        H532   1.084       .  S
C533        C534   1.405       .  A
C533        C538   1.402       .  A
C533        H543   1.083       .  S
C534        C539   1.480       .  S
C534        C535   1.403       .  A
C535        C536   1.393       .  A
C535        F540   1.358       .  S
C536        C537   1.408       .  A
C536        H541   1.083       .  S
C537        C538   1.410       .  A
C538        F542   1.357       .  S
C539        C544   1.405       .  A
C539        C548   1.404       .  A
C544        C545   1.393       .  A
C544        F549   1.358       .  S
C545        C546   1.406       .  A
C545        H550   1.084       .  S
C546        C547   1.409       .  A
C547        C548   1.402       .  A
C547        F551   1.357       .  S
C548        H552   1.084       .  S
C553        C554   1.400       .  A
C553        C558   1.392       .  A
C553        H563   1.084       .  S
C554        C559   1.483       .  S
C554        C555   1.407       .  A
C555        C556   1.404       .  A
C555        F560   1.357       .  S
C556        C557   1.410       .  A
C556        H561   1.083       .  S
C557        C558   1.412       .  A
C558        F562   1.355       .  S
C559        C564   1.407       .  A
C559        C568   1.404       .  A
C564        C565   1.394       .  A
C564        F569   1.358       .  S
C565        C566   1.402       .  A
C565        H570   1.083       .  S
C566        C567   1.409       .  A
C567        C568   1.402       .  A
C567        F571   1.358       .  S
C568        H572   1.083       .  S
C573        C574   1.402       .  A
C573        C578   1.392       .  A
C573        H583   1.084       .  S
C574        C579   1.477       .  S
C574        C575   1.405       .  A
C575        C576   1.400       .  A
C575        F580   1.358       .  S
C576        C577   1.407       .  A
C576        H581   1.083       .  S
C577        C578   1.408       .  A
C578        F582   1.358       .  S
C579        C584   1.406       .  A
C579        C588   1.401       .  A
C584        C585   1.399       .  A
C584        F589   1.358       .  S
C585        C586   1.409       .  A
C585        H590   1.083       .  S
C586        C587   1.410       .  A
C587        C588   1.392       .  A
C587        F591   1.357       .  S
C588        H592   1.084       .  S
C593        C594   1.403       .  A
C593        C598   1.402       .  A
C593        H603   1.084       .  S
C594        C599   1.476       .  S
C594        C595   1.402       .  A
C595        C596   1.393       .  A
C595        F600   1.358       .  S
C596        C597   1.407       .  A
C596        H601   1.083       .  S
C597        C598   1.412       .  A
C598        F602   1.357       .  S
C599        C604   1.402       .  A
C599        C608   1.402       .  A
C604        C605   1.394       .  A
C604        F609   1.358       .  S
C605        C606   1.408       .  A
C605        H610   1.083       .  S
C606        C607   1.412       .  A
C607        C608   1.401       .  A
C607        F611   1.357       .  S
C608        H612   1.084       .  S
C613        C614   1.402       .  A
C613        C618   1.399       .  A
C613        H623   1.084       .  S
C614        C619   1.473       .  S
C614        C615   1.402       .  A
C615        C616   1.393       .  A
C615        F620   1.357       .  S
C616        C617   1.405       .  A
C616        H621   1.083       .  S
C617        C618   1.413       .  A
C618        F622   1.358       .  S
C619        C624   1.404       .  A
C619        C628   1.402       .  A
C624        C625   1.397       .  A
C624        F629   1.358       .  S
C625        C626   1.404       .  A
C625        H630   1.083       .  S
C626        C627   1.405       .  A
C627        C628   1.395       .  A
C627       F1283   1.358       .  S
C628        H632   1.083       .  S
F631       C1279   1.358       .  S
C633        C634   1.403       .  A
C633        C638   1.399       .  A
C633        H643   1.083       .  S
C634        C639   1.485       .  S
C634        C635   1.407       .  A
C635        C636   1.398       .  A
C635        F640   1.358       .  S
C636        C637   1.406       .  A
C636        H641   1.083       .  S
C637        C638   1.412       .  A
C638        F642   1.357       .  S
C639        C644   1.408       .  A
C639        C648   1.403       .  A
C644        C645   1.400       .  A
C644        F649   1.357       .  S
C645        C646   1.404       .  A
C645        H650   1.083       .  S
C646        C647   1.410       .  A
C647        C648   1.397       .  A
C647        F651   1.358       .  S
C648        H652   1.083       .  S
O653        C668   1.263       .  A
O653       Al661   1.919   1_554  S
C654        O664   1.264       .  A
C654        O655   1.259       .  A
C654       C1229   1.475       .  S
O655       Al657   1.888       .  S
O656        C658   1.264       .  A
O656       Al657   1.909       .  S
Al657       O665   1.906   1_556  S
Al657       O667   1.896   1_556  S
Al657       O666   1.786       .  S
C658        O671   1.261       .  A
C658       C1198   1.482       .  S
O659        C669   1.261       .  A
O659       Al661   1.907       .  S
O660        C673   1.265       .  A
O660       Al670   1.919   1_554  S
Al661       O674   1.891   1_556  S
Al661       O671   1.899       .  S
Al661       O666   1.783       .  S
O662        C669   1.258       .  A
O662       Al670   1.895       .  S
O663        C672   1.259       .  A
O663       Al670   1.889   1_554  S
O664       Al670   1.911       .  S
O665        C672   1.260       .  A
O666       Al670   1.783       .  S
O667        C668   1.260       .  A
C668       C1218   1.485       .  S
C669       C1249   1.482       .  S
C672       C1269   1.480       .  S
C673        O674   1.262       .  A
C673       C1289   1.482       .  S
O675        C690   1.260       .  A
O675       Al683   1.896   1_554  S
C676        O686   1.263       .  A
C676        O677   1.263       .  A
C676       C1118   1.476       .  S
O677       Al679   1.911       .  S
O678        C680   1.259       .  A
O678       Al679   1.883       .  S
Al679       O687   1.898   1_556  S
Al679       O689   1.907   1_556  S
Al679       O688   1.784       .  S
C680        O693   1.262       .  A
C680       C1078   1.467       .  S
O681        C691   1.258       .  A
O681       Al683   1.894       .  S
O682        C695   1.263       .  A
O682       Al692   1.900   1_554  S
Al683       O696   1.919   1_556  S
Al683       O693   1.910       .  S
Al683       O688   1.779       .  S
O684        C691   1.261       .  A
O684       Al692   1.918       .  S
O685        C694   1.264       .  A
O685       Al692   1.916   1_554  S
O686       Al692   1.905       .  S
O687        C694   1.261       .  A
O688       Al692   1.783       .  S
O689        C690   1.261       .  A
C690       C1098   1.482       .  S
C691       C1138   1.474       .  S
C694       C1149   1.484       .  S
C695        O696   1.266       .  A
C695       C1169   1.484       .  S
C697       C2027   1.491       .  S
C697        C698   1.420       .  A
C697       C2006   1.420       .  A
C698        C705   1.480       .  S
C699        C729   1.490       .  S
C699       C2004   1.415       .  A
C700        C735   1.489       .  S
C700       C2003   1.416   1_455  A
C701        C713   1.483       .  S
C701        C702   1.418       .  A
C702        C717   1.492       .  S
C702       C2001   1.418       .  A
C703       C1089   1.483       .  S
C703        N704   1.355       .  A
C703        N708   1.356       .  A
N704        C705   1.356       .  A
N706        C707   1.357       .  A
C707       C1058   1.486       .  S
C709       C1278   1.475       .  S
C709        N714   1.355       .  A
N710        C711   1.358       .  A
C711       C1029   1.485       .  S
C711        N712   1.358       .  A
N712        C713   1.359       .  A
C715       C1158   1.488       .  S
C715        N716   1.358       .  A
C715        N720   1.358       .  A
N716        C717   1.361       .  A
C717        N718   1.362       .  A
N718        C719   1.358       .  A
C719       C1018   1.489       .  S
C719        N720   1.356       .  A
C721       C1209   1.475       .  S
C721        N722   1.357       .  A
C721        N726   1.355       .  A
N722        C723   1.362       .  A
C723       C2001   1.490       .  S
C723       N2028   1.360   1_455  A
N724       C2027   1.362       .  A
N724        C725   1.360       .  A
C725        C989   1.487       .  S
C725       N2030   1.356       .  A
N726       C2029   1.356   1_455  A
C727        C969   1.478       .  S
C727        N728   1.358       .  A
C727        N732   1.355       .  A
N728        C729   1.361       .  A
C729        N730   1.359       .  A
N730        C731   1.358       .  A
C731       C1298   1.480       .  S
C731        N732   1.355       .  A
C733       C1178   1.486       .  S
C733        N734   1.360       .  A
C733       N2042   1.357       .  A
N734       C2039   1.362       .  A
C735       N2038   1.361   1_455  A
C735        N736   1.358       .  A
N736        C737   1.356       .  A
C737        C949   1.483       .  S
C737        N738   1.358       .  A
N738       C2037   1.357   1_455  A
O739        C754   1.263       .  A
O739       Al747   1.919       .  S
C740        O750   1.261       .  A
C740        O741   1.257       .  A
C740        C898   1.478       .  S
O741       Al743   1.889       .  S
O742        C744   1.261       .  A
O742       Al743   1.907       .  S
Al743       O751   1.915       .  S
Al743       O753   1.882       .  S
Al743       O752   1.788       .  S
C744        O757   1.260       .  A
C744        C918   1.475       .  S
O745        C755   1.266       .  A
O745       Al747   1.923       .  S
O746        C759   1.260       .  A
O746       Al756   1.910       .  S
Al747       O760   1.895       .  S
Al747       O757   1.897       .  S
Al747       O752   1.788       .  S
O748        C755   1.260       .  A
O748       Al756   1.893       .  S
O749        C758   1.260       .  A
O749       Al756   1.888       .  S
O750       Al756   1.903       .  S
O751        C758   1.262       .  A
O752       Al756   1.791       .  S
O753        C754   1.258       .  A
C754       C1038   1.482       .  S
C755        C929   1.486       .  S
C758        C998   1.474       .  S
C759        O760   1.260       .  A
C759        C978   1.483       .  S
O761        C776   1.259       .  A
O761       Al769   1.892       .  S
C762        O772   1.262       .  A
C762        O763   1.263       .  A
C762        C958   1.477       .  S
O763       Al765   1.908       .  S
O764        C766   1.262       .  A
O764       Al765   1.899       .  S
Al765       O773   1.903       .  S
Al765       O775   1.897       .  S
Al765       O774   1.783       .  S
C766        O779   1.266       .  A
C766       C1009   1.487       .  S
O767        C777   1.260       .  A
O767       Al769   1.902       .  S
O768        C781   1.260       .  A
O768       Al778   1.884       .  S
Al769       O782   1.924       .  S
Al769       O779   1.918       .  S
Al769       O774   1.783       .  S
O770        C777   1.261       .  A
O770       Al778   1.911       .  S
O771        C780   1.262       .  A
O771       Al778   1.915       .  S
O772       Al778   1.892       .  S
O773        C780   1.260       .  A
O774       Al778   1.782       .  S
O775        C776   1.258       .  A
C776        C829   1.474       .  S
C777       C1049   1.487       .  S
C780        C858   1.474       .  S
C781        O782   1.266       .  A
C781        C878   1.482       .  S
C783       C2092   1.424       .  A
C784        C823   1.489       .  S
C784       C2089   1.416       .  A
C785       C2121   1.484       .  S
C785       C2088   1.417       .  A
C786        C787   1.413       .  A
C787        C811   1.479       .  S
C787        C788   1.416   1_455  A
C788       C2109   1.493   1_655  S
C788       C2087   1.420       .  A
C789       C1238   1.481       .  S
C789        N790   1.358       .  A
C789        N794   1.356       .  A
C791        C909   1.472       .  S
C791        N792   1.357       .  A
C793        N794   1.357       .  A
C795        C869   1.475       .  S
C795        N796   1.357       .  A
C795        N800   1.350       .  A
N796        C797   1.362   1_565  A
N798        C799   1.356       .  A
C799       C1069   1.480       .  S
C801        C889   1.481       .  S
C801        N802   1.354       .  A
C801        N806   1.355       .  A
N802       C2107   1.355       .  A
C803       C1189   1.487       .  S
C803       N2106   1.354       .  A
C803        N804   1.362       .  A
N804       C2109   1.365       .  A
C805       C2092   1.494       .  S
C805       N2108   1.364       .  A
C805        N806   1.358       .  A
C807        C838   1.478       .  S
C807        N808   1.354       .  A
C807        N812   1.355       .  A
N808        C809   1.353       .  A
C809       C1109   1.471       .  S
C809        N810   1.358       .  A
N810        C811   1.360       .  A
C811        N812   1.357       .  A
C813       C1129   1.473       .  S
C813        N814   1.356       .  A
C813        N818   1.357       .  A
N814       C2119   1.357       .  A
C815        C849   1.476       .  S
C815       N2118   1.355       .  A
C815        N816   1.359       .  A
N816       C2121   1.360   1_455  A
C817       C2089   1.483       .  S
C817       N2120   1.360       .  A
C817        N818   1.358       .  A
C819        C938   1.489       .  S
C819        N820   1.359       .  A
C819        N824   1.360       .  A
N820        C821   1.358       .  A
C821       C1258   1.485       .  S
C821        N822   1.355       .  A
N822        C823   1.357       .  A
C823        N824   1.361       .  A
C825        C826   1.401       .  A
C825        C830   1.394       .  A
C825        H835   1.084       .  S
C826        C831   1.475       .  S
C826        C827   1.407       .  A
C827        C828   1.395       .  A
C827        F832   1.358       .  S
C828        C829   1.403       .  A
C828        H833   1.084       .  S
C829        C830   1.410       .  A
C830        F834   1.358       .  S
C831        C836   1.403       .  A
C831        C840   1.404       .  A
C836        C837   1.390       .  A
C836        F841   1.357       .  S
C837        C838   1.406       .  A
C837        H842   1.083       .  S
C838        C839   1.410       .  A
C839        C840   1.398       .  A
C839        F843   1.358       .  S
C840        H844   1.084       .  S
C845        C846   1.407       .  A
C845        C850   1.397       .  A
C845        H855   1.082       .  S
C846        C851   1.487       .  S
C846        C847   1.408       .  A
C847        C848   1.397       .  A
C847        F852   1.357       .  S
C848        C849   1.405       .  A
C848        H853   1.083   1_455  S
C849        C850   1.403       .  A
C850        F854   1.355       .  S
C851        C856   1.408       .  A
C851        C860   1.408       .  A
C856        C857   1.395       .  A
C856        F861   1.357       .  S
C857        C858   1.403       .  A
C857        H862   1.084       .  S
C858        C859   1.405       .  A
C859        C860   1.400       .  A
C859        F863   1.357       .  S
C860        H864   1.083       .  S
C865        C866   1.402       .  A
C865        C870   1.393       .  A
C865        H875   1.083       .  S
C866        C871   1.481       .  S
C866        C867   1.408       .  A
C867        C868   1.400       .  A
C867        F872   1.357       .  S
C868        C869   1.403       .  A
C868        H873   1.083       .  S
C869        C870   1.409       .  A
C870        F874   1.358       .  S
C871        C876   1.405       .  A
C871        C880   1.403       .  A
C876        C877   1.398       .  A
C876        F881   1.357       .  S
C877        C878   1.407       .  A
C877        H882   1.083       .  S
C878        C879   1.410       .  A
C879        C880   1.395       .  A
C879        F883   1.358       .  S
C880        H884   1.083       .  S
C885        C886   1.402       .  A
C885        C890   1.398       .  A
C885        H895   1.084       .  S
C886        C891   1.474       .  S
C886        C887   1.403       .  A
C887        C888   1.392       .  A
C887        F892   1.358       .  S
C888        C889   1.407       .  A
C888        H893   1.083       .  S
C889        C890   1.411       .  A
C890        F894   1.357       .  S
C891        C896   1.404       .  A
C891        C900   1.403       .  A
C896        C897   1.391       .  A
C896        F901   1.358       .  S
C897        C898   1.405       .  A
C897        H902   1.083       .  S
C898        C899   1.411       .  A
C899        C900   1.400       .  A
C899        F903   1.357       .  S
C900        H904   1.084       .  S
C905        C906   1.407       .  A
C905        C910   1.396       .  A
C905        H915   1.083       .  S
C906        C911   1.493       .  S
C906        C907   1.412       .  A
C907        C908   1.402       .  A
C907        F912   1.357       .  S
C908        C909   1.402       .  A
C908        H913   1.083       .  S
C909        C910   1.403       .  A
C911        C916   1.412       .  A
C911        C920   1.408       .  A
C916        C917   1.397       .  A
C916        F921   1.358       .  S
C917        C918   1.402       .  A
C917        H922   1.084       .  S
C918        C919   1.405       .  A
C919        C920   1.400       .  A
C919        F923   1.357       .  S
C920        H924   1.083       .  S
C925        C926   1.404       .  A
C925        C930   1.402       .  A
C925        H935   1.083       .  S
C926        C931   1.485       .  S
C926        C927   1.406       .  A
C927        C928   1.397       .  A
C927        F932   1.357       .  S
C928        C929   1.405       .  A
C928        H933   1.083       .  S
C929        C930   1.412       .  A
C930        F934   1.358       .  S
C931        C936   1.405       .  A
C931        C940   1.404       .  A
C936        C937   1.397       .  A
C936        F941   1.358       .  S
C937        C938   1.408       .  A
C937        H942   1.083       .  S
C938        C939   1.411       .  A
C939        C940   1.402       .  A
C939        F943   1.357       .  S
C940        H944   1.083       .  S
C945        C946   1.402       .  A
C945        C950   1.399       .  A
C945        H955   1.083       .  S
C946        C951   1.474       .  S
C946        C947   1.403       .  A
C947        C948   1.392       .  A
C947        F952   1.358       .  S
C948        C949   1.406       .  A
C948        H953   1.083       .  S
C949        C950   1.413       .  A
C950        F954   1.357       .  S
C951        C956   1.404       .  A
C951        C960   1.401       .  A
C956        C957   1.398       .  A
C956        F961   1.357       .  S
C957        C958   1.407       .  A
C957        H962   1.083       .  S
C958        C959   1.410       .  A
C959        C960   1.392       .  A
C959        F963   1.358       .  S
C960        H964   1.084       .  S
C965        C966   1.402       .  A
C965        C970   1.396       .  A
C965        H975   1.084       .  S
C966        C971   1.479       .  S
C966        C967   1.406       .  A
C967        C968   1.400       .  A
C967        F972   1.357       .  S
C968        C969   1.404       .  A
C968        H973   1.083       .  S
C969        C970   1.409       .  A
C970        F974   1.358       .  S
C971        C976   1.405       .  A
C971        C980   1.402       .  A
C976        C977   1.397       .  A
C976        F981   1.358       .  S
C977        C978   1.406       .  A
C977        H982   1.083       .  S
C978        C979   1.412       .  A
C979        C980   1.399       .  A
C979        F983   1.358       .  S
C980        H984   1.083       .  S
C985        C986   1.400       .  A
C985        C990   1.392       .  A
C985        H995   1.083       .  S
C986        C991   1.481       .  S
C986        C987   1.407       .  A
C987        C988   1.402       .  A
C987        F992   1.357       .  S
C988        C989   1.409       .  A
C988        H993   1.083       .  S
C989        C990   1.412       .  A
C990       F2298   1.356       .  S
C991        C996   1.408       .  A
C991       C1000   1.404       .  A
F994       C2294   1.358       .  S
C996        C997   1.395       .  A
C996       F1001   1.358       .  S
C997        C998   1.402       .  A
C997       H1002   1.084       .  S
C998        C999   1.407       .  A
C999       C1000   1.400       .  A
C999       F1003   1.358       .  S
C1000      H1004   1.083       .  S
C1005      C1006   1.405       .  A
C1005      C1010   1.404       .  A
C1005      H1015   1.083       .  S
C1006      C1011   1.486       .  S
C1006      C1007   1.406       .  A
C1007      C1008   1.395       .  A
C1007      F1012   1.358       .  S
C1008      C1009   1.406       .  A
C1008      H1013   1.083       .  S
C1009      C1010   1.412       .  A
C1010      F1014   1.357       .  S
C1011      C1016   1.407       .  A
C1011      C1020   1.402       .  A
C1016      C1017   1.402       .  A
C1016      F1021   1.357       .  S
C1017      C1018   1.408       .  A
C1017      H1022   1.083       .  S
C1018      C1019   1.412       .  A
C1019      C1020   1.396       .  A
C1019      F1023   1.357       .  S
C1020      H1024   1.084       .  S
C1025      C1026   1.406       .  A
C1025      C1030   1.400       .  A
C1025      H1035   1.083       .  S
C1026      C1031   1.488       .  S
C1026      C1027   1.408       .  A
C1027      C1028   1.394       .  A
C1027      F1032   1.358       .  S
C1028      C1029   1.406       .  A
C1028      H1033   1.083       .  S
C1029      C1030   1.411       .  A
C1030      F1034   1.357       .  S
C1031      C1036   1.409       .  A
C1031      C1040   1.405       .  A
C1036      C1037   1.400       .  A
C1036      F1041   1.357       .  S
C1037      C1038   1.406       .  A
C1037      H1042   1.083       .  S
C1038      C1039   1.409       .  A
C1039      C1040   1.395       .  A
C1039      F1043   1.358       .  S
C1040      H1044   1.083       .  S
C1045      C1046   1.404       .  A
C1045      C1050   1.395       .  A
C1045      H1055   1.083       .  S
C1046      C1051   1.491       .  S
C1046      C1047   1.410       .  A
C1047      C1048   1.403       .  A
C1047      F1052   1.357       .  S
C1048      C1049   1.408       .  A
C1048      H1053   1.083       .  S
C1049      C1050   1.410       .  A
C1050      F1054   1.357       .  S
C1051      C1056   1.408       .  A
C1051      C1060   1.407       .  A
C1056      C1057   1.394       .  A
C1056      F1061   1.357       .  S
C1057      C1058   1.405       .  A
C1058      C1059   1.412       .  A
C1059      C1060   1.402       .  A
C1059      F1063   1.358       .  S
C1060      H1064   1.083       .  S
C1065      C1066   1.403       .  A
C1065      C1070   1.397       .  A
C1065      H1075   1.084       .  S
C1066      C1071   1.473       .  S
C1066      C1067   1.402       .  A
C1067      C1068   1.392       .  A
C1067      F1072   1.358       .  S
C1068      C1069   1.408       .  A
C1068      H1073   1.083       .  S
C1069      C1070   1.410       .  A
C1070      F1074   1.357       .  S
C1071      C1076   1.405       .  A
C1071      C1080   1.403       .  A
C1076      C1077   1.394       .  A
C1076      F1081   1.358       .  S
C1077      C1078   1.402       .  A
C1077      H1082   1.084       .  S
C1078      C1079   1.406       .  A
C1079      C1080   1.396       .  A
C1079      F1083   1.357       .  S
C1080      H1084   1.084       .  S
C1085      C1086   1.402       .  A
C1085      C1090   1.394       .  A
C1085      H1095   1.083       .  S
C1086      C1091   1.480       .  S
C1086      C1087   1.405       .  A
C1087      C1088   1.398       .  A
C1087      F1092   1.357       .  S
C1088      C1089   1.408       .  A
C1088      H1093   1.083       .  S
C1089      C1090   1.410       .  A
C1090      F1094   1.357       .  S
C1091      C1096   1.406       .  A
C1091      C1100   1.403       .  A
C1096      C1097   1.395       .  A
C1096      F1101   1.358       .  S
C1097      C1098   1.407       .  A
C1097      H1102   1.083       .  S
C1098      C1099   1.410       .  A
C1099      C1100   1.398       .  A
C1099      F1103   1.357       .  S
C1100      H1104   1.083       .  S
C1105      C1106   1.404       .  A
C1105      C1110   1.395       .  A
C1105      H1115   1.083       .  S
C1106      C1111   1.484       .  S
C1106      C1107   1.411       .  A
C1107      C1108   1.397       .  A
C1107      F1112   1.357       .  S
C1108      C1109   1.401       .  A
C1108      H1113   1.084       .  S
C1109      C1110   1.407       .  A
C1110      F1114   1.358       .  S
C1111      C1116   1.411       .  A
C1111      C1120   1.402       .  A
C1116      C1117   1.400       .  A
C1116      F1121   1.358       .  S
C1117      C1118   1.404       .  A
C1117      H1122   1.083       .  S
C1118      C1119   1.408       .  A
C1119      C1120   1.393       .  A
C1119      F1123   1.358       .  S
C1120      H1124   1.083       .  S
C1125      C1126   1.404       .  A
C1125      C1130   1.397       .  A
C1125      H1135   1.083       .  S
C1126      C1131   1.479       .  S
C1126      C1127   1.406       .  A
C1127      C1128   1.398       .  A
C1127      F1132   1.358       .  S
C1128      C1129   1.405       .  A
C1128      H1133   1.083       .  S
C1129      C1130   1.405       .  A
C1130      F1134   1.356       .  S
C1131      C1136   1.405       .  A
C1131      C1140   1.405       .  A
C1136      C1137   1.398       .  A
C1136      F1141   1.358       .  S
C1137      C1138   1.405       .  A
C1137      H1142   1.084       .  S
C1138      C1139   1.405       .  A
C1139      C1140   1.397       .  A
C1139      F1143   1.357       .  S
C1140      H1144   1.084       .  S
C1145      C1146   1.403       .  A
C1145      C1150   1.393       .  A
C1145      H1155   1.083       .  S
C1146      C1151   1.483       .  S
C1146      C1147   1.406       .  A
C1147      C1148   1.402       .  A
C1147      F1152   1.357       .  S
C1148      C1149   1.409       .  A
C1148      H1153   1.083       .  S
C1149      C1150   1.409       .  A
C1150      F1154   1.358       .  S
C1151      C1156   1.404       .  A
C1151      C1160   1.405       .  A
C1156      C1157   1.392       .  A
C1156      F1161   1.358       .  S
C1157      C1158   1.407       .  A
C1157      H1162   1.082       .  S
C1158      C1159   1.413       .  A
C1159      C1160   1.403       .  A
C1159      F1163   1.357       .  S
C1160      H1164   1.083       .  S
C1165      C1166   1.403       .  A
C1165      C1170   1.395       .  A
C1165      H1175   1.083       .  S
C1166      C1171   1.485       .  S
C1166      C1167   1.407       .  A
C1167      C1168   1.402       .  A
C1167      F1172   1.357       .  S
C1168      C1169   1.408       .  A
C1168      H1173   1.083       .  S
C1169      C1170   1.409       .  A
C1170      F1174   1.358       .  S
C1171      C1176   1.406       .  A
C1171      C1180   1.405       .  A
C1176      C1177   1.396       .  A
C1176      F1181   1.358       .  S
C1177      C1178   1.406       .  A
C1177      H1182   1.083       .  S
C1178      C1179   1.410       .  A
C1179      C1180   1.402       .  A
C1179      F1183   1.356       .  S
C1180      H1184   1.083       .  S
C1185      C1186   1.404       .  A
C1185      C1190   1.401       .  A
C1185      H1195   1.083       .  S
C1186      C1191   1.481       .  S
C1186      C1187   1.403       .  A
C1187      C1188   1.393       .  A
C1187      F1192   1.358       .  S
C1188      C1189   1.409       .  A
C1188      H1193   1.083       .  S
C1189      C1190   1.409       .  A
C1190      F1194   1.355       .  S
C1191      C1196   1.405       .  A
C1191      C1200   1.404       .  A
C1196      C1197   1.392       .  A
C1196      F1201   1.358       .  S
C1197      C1198   1.406       .  A
C1197      H1202   1.083       .  S
C1198      C1199   1.410       .  A
C1199      C1200   1.402       .  A
C1199      F1203   1.357       .  S
C1200      H1204   1.084       .  S
C1205      C1206   1.402       .  A
C1205      C1210   1.397       .  A
C1205      H1215   1.083       .  S
C1206      C1211   1.479       .  S
C1206      C1207   1.406       .  A
C1207      C1208   1.400       .  A
C1207      F1212   1.357       .  S
C1208      C1209   1.404       .  A
C1208      H1213   1.083       .  S
C1209      C1210   1.408       .  A
C1210      F1214   1.358       .  S
C1211      C1216   1.405       .  A
C1211      C1220   1.401       .  A
C1216      C1217   1.399       .  A
C1216      F1221   1.358       .  S
C1217      C1218   1.407       .  A
C1217      H1222   1.083       .  S
C1218      C1219   1.412       .  A
C1219      C1220   1.398       .  A
C1219      F1223   1.357       .  S
C1220      H1224   1.083       .  S
C1225      C1226   1.404       .  A
C1225      C1230   1.392       .  A
C1225      H1235   1.083       .  S
C1226      C1231   1.481       .  S
C1226      C1227   1.407       .  A
C1227      C1228   1.400       .  A
C1227      F1232   1.358       .  S
C1228      C1229   1.407       .  A
C1228      H1233   1.083       .  S
C1229      C1230   1.405       .  A
C1230      F1234   1.358       .  S
C1231      C1236   1.407       .  A
C1231      C1240   1.403       .  A
C1236      C1237   1.398       .  A
C1236      F1241   1.357       .  S
C1237      C1238   1.408       .  A
C1237      H1242   1.083       .  S
C1238      C1239   1.408       .  A
C1239      C1240   1.393       .  A
C1239      F1243   1.357       .  S
C1240      H1244   1.084       .  S
C1245      C1246   1.403       .  A
C1245      C1250   1.401       .  A
C1245      H1255   1.084       .  S
C1246      C1251   1.478       .  S
C1246      C1247   1.404       .  A
C1247      C1248   1.393       .  A
C1247      F1252   1.358       .  S
C1248      C1249   1.406       .  A
C1248      H1253   1.083       .  S
C1249      C1250   1.411       .  A
C1250      F1254   1.357       .  S
C1251      C1256   1.404       .  A
C1251      C1260   1.402       .  A
C1256      C1257   1.393       .  A
C1256      F1261   1.358       .  S
C1257      C1258   1.406       .  A
C1257      H1262   1.083       .  S
C1258      C1259   1.413       .  A
C1259      C1260   1.400       .  A
C1259      F1263   1.357       .  S
C1260      H1264   1.084       .  S
C1265      C1266   1.402       .  A
C1265      C1270   1.398       .  A
C1265      H1275   1.084       .  S
C1266      C1271   1.475       .  S
C1266      C1267   1.404       .  A
C1267      C1268   1.394       .  A
C1267      F1272   1.358       .  S
C1268      C1269   1.405       .  A
C1268      H1273   1.083       .  S
C1269      C1270   1.412       .  A
C1270      F1274   1.358       .  S
C1271      C1276   1.404       .  A
C1271      C1280   1.402       .  A
C1276      C1277   1.397       .  A
C1276      F1281   1.358       .  S
C1277      C1278   1.406       .  A
C1277      H1282   1.083       .  S
C1278      C1279   1.407       .  A
C1279      C1280   1.395       .  A
C1280      H1284   1.083       .  S
C1285      C1286   1.403       .  A
C1285      C1290   1.399       .  A
C1285      H1295   1.083       .  S
C1286      C1291   1.481       .  S
C1286      C1287   1.406       .  A
C1287      C1288   1.395       .  A
C1287      F1292   1.358       .  S
C1288      C1289   1.405       .  A
C1288      H1293   1.083       .  S
C1289      C1290   1.411       .  A
C1290      F1294   1.357       .  S
C1291      C1296   1.407       .  A
C1291      C1300   1.402       .  A
C1296      C1297   1.399       .  A
C1296      F1301   1.357       .  S
C1297      C1298   1.406       .  A
C1297      H1302   1.083       .  S
C1298      C1299   1.410       .  A
C1299      C1300   1.395       .  A
C1299      F1303   1.358       .  S
C1300      H1304   1.084       .  S
O1305      C1320   1.261       .  A
O1305     Al1313   1.909   1_554  S
C1306      O1316   1.261       .  A
C1306      O1307   1.259       .  A
C1306      C1881   1.480       .  S
O1307     Al1309   1.894       .  S
O1308      C1310   1.264       .  A
O1308     Al1309   1.910       .  S
Al1309     O1317   1.918   1_556  S
Al1309     O1319   1.893   1_556  S
Al1309     O1318   1.785       .  S
C1310      O1323   1.261       .  A
C1310      C1850   1.484       .  S
O1311      C1321   1.263       .  A
O1311     Al1313   1.910       .  S
O1312      C1325   1.262       .  A
O1312     Al1322   1.911   1_554  S
Al1313     O1326   1.899   1_556  S
Al1313     O1323   1.900       .  S
Al1313     O1318   1.783       .  S
O1314      C1321   1.260       .  A
O1314     Al1322   1.892       .  S
O1315      C1324   1.260       .  A
O1315     Al1322   1.884   1_554  S
O1316     Al1322   1.906       .  S
O1317      C1324   1.263       .  A
O1318     Al1322   1.781       .  S
O1319      C1320   1.260       .  A
C1320      C1870   1.480       .  S
C1321      C1901   1.480       .  S
C1324      C1921   1.481       .  S
C1325      O1326   1.262       .  A
C1325      C1941   1.483       .  S
O1327      C1342   1.260       .  A
O1327     Al1335   1.893   1_554  S
C1328      O1338   1.262       .  A
C1328      O1329   1.264       .  A
C1328      C1770   1.475       .  S
O1329     Al1331   1.914       .  S
O1330      C1332   1.260       .  A
O1330     Al1331   1.890       .  S
Al1331     O1339   1.902   1_556  S
Al1331     O1341   1.906   1_556  S
Al1331     O1340   1.784       .  S
C1332      O1345   1.262       .  A
C1332      C1730   1.473       .  S
O1333      C1343   1.258       .  A
O1333     Al1335   1.894       .  S
O1334      C1347   1.263       .  A
O1334     Al1344   1.900   1_554  S
Al1335     O1348   1.917   1_556  S
Al1335     O1345   1.907       .  S
Al1335     O1340   1.779       .  S
O1336      C1343   1.261       .  A
O1336     Al1344   1.915       .  S
O1337      C1346   1.263       .  A
O1337     Al1344   1.912   1_554  S
O1338     Al1344   1.898       .  S
O1339      C1346   1.261       .  A
O1340     Al1344   1.780       .  S
O1341      C1342   1.262       .  A
C1342      C1750   1.478       .  S
C1343      C1790   1.474       .  S
C1346      C1801   1.484       .  S
C1347      O1348   1.265       .  A
C1347      C1821   1.483       .  S
C1349      C1350   1.421   1_545  A
C1350      C1357   1.480       .  S
C1350      C2003   1.415       .  A
C1351      C1381   1.491       .  S
C1351      C2002   1.416       .  A
C1352      C1387   1.482       .  S
C1352      C2005   1.417       .  A
C1353      C1365   1.483       .  S
C1353      C2004   1.419   1_545  A
C1353      C1354   1.419       .  A
C1354      C1369   1.491       .  S
C1355      C1741   1.477       .  S
C1355      N1356   1.354       .  A
C1355      N1360   1.355   1_545  A
N1356      C1357   1.355   1_545  A
C1357      N2010   1.361       .  A
N1358      C2009   1.361       .  A
N1358      C1359   1.359       .  A
C1359      C1710   1.486       .  S
C1359      N2012   1.358       .  A
N1360      C2011   1.358       .  A
C1361      C1930   1.471       .  S
C1361      N2014   1.355       .  A
C1361      N1366   1.355       .  A
N1362      C2013   1.354       .  A
N1362      C1363   1.356   1_565  A
C1363      C1681   1.482       .  S
C1363      N1364   1.357       .  A
N1364      C1365   1.359       .  A
C1365      N2018   1.358   1_545  A
N1366      C2017   1.358       .  A
C1367      C1810   1.487       .  S
C1367      N1368   1.359       .  A
C1367      N1372   1.356       .  A
N1368      C1369   1.362       .  A
C1369      N1370   1.361       .  A
N1370      C1371   1.358       .  A
C1371      C1670   1.486       .  S
C1371      N1372   1.356       .  A
C1373      C1861   1.480       .  S
C1373      N1374   1.357       .  A
C1373      N1378   1.354       .  A
N1374      C1375   1.361       .  A
N1376      C1377   1.360       .  A
C1377      C1641   1.492       .  S
C1379      C1621   1.479       .  S
C1379      N1380   1.358       .  A
C1379      N1384   1.354       .  A
N1380      C1381   1.360       .  A
C1381      N1382   1.361       .  A
N1382      C1383   1.358       .  A
C1383      C1950   1.478       .  S
C1383      N1384   1.354       .  A
C1385      C1830   1.483       .  S
C1385      N1386   1.359       .  A
C1387      N1388   1.358       .  A
N1388      C1389   1.356       .  A
C1389      C1601   1.481       .  S
C1389      N1390   1.357       .  A
O1391      C1406   1.260       .  A
O1391     Al1399   1.906       .  S
C1392      O1402   1.260       .  A
C1392      O1393   1.257       .  A
C1392      C1550   1.481       .  S
O1393     Al1395   1.890       .  S
O1394      C1396   1.259       .  A
O1394     Al1395   1.903       .  S
Al1395     O1403   1.911       .  S
Al1395     O1405   1.879       .  S
Al1395     O1404   1.795       .  S
C1396      O1409   1.258       .  A
C1396      C1570   1.474       .  S
O1397      C1407   1.261       .  A
O1397     Al1399   1.904       .  S
O1398      C1411   1.258       .  A
O1398     Al1408   1.896       .  S
Al1399     O1412   1.891       .  S
Al1399     O1409   1.892       .  S
Al1399     O1404   1.797       .  S
O1400      C1407   1.261       .  A
O1400     Al1408   1.904       .  S
O1401      C1410   1.260       .  A
O1401     Al1408   1.899       .  S
O1402     Al1408   1.901       .  S
O1403      C1410   1.261       .  A
O1404     Al1408   1.799       .  S
O1405      C1406   1.257       .  A
C1406      C1690   1.478       .  S
C1407      C1581   1.479       .  S
C1410      C1650   1.481       .  S
C1411      O1412   1.258       .  A
C1411      C1630   1.479       .  S
O1413      C1428   1.260       .  A
O1413     Al1421   1.891       .  S
C1414      O1424   1.261       .  A
C1414      O1415   1.261       .  A
C1414      C1610   1.479       .  S
O1415     Al1417   1.901       .  S
O1416      C1418   1.261       .  A
O1416     Al1417   1.895       .  S
Al1417     O1425   1.894       .  S
Al1417     O1427   1.896       .  S
Al1417     O1426   1.781       .  S
C1418      O1431   1.264       .  A
C1418      C1661   1.482       .  S
O1419      C1429   1.261       .  A
O1419     Al1421   1.900       .  S
O1420      C1433   1.261       .  A
O1420     Al1430   1.895       .  S
Al1421     O1434   1.910       .  S
Al1421     O1431   1.914       .  S
Al1421     O1426   1.783       .  S
O1422      C1429   1.263       .  A
O1422     Al1430   1.910       .  S
O1423      C1432   1.264       .  A
O1423     Al1430   1.920       .  S
O1424     Al1430   1.898       .  S
O1425      C1432   1.259       .  A
O1426     Al1430   1.782       .  S
O1427      C1428   1.259       .  A
C1428      C1481   1.469       .  S
C1429      C1701   1.485       .  S
C1432      C1510   1.474       .  S
C1433      O1434   1.263       .  A
C1433      C1530   1.481       .  S
C1435      C2101   1.489       .  S
C1435      C2088   1.420       .  A
C1436      C1475   1.490       .  S
C1436      C2087   1.420       .  A
C1437      C2090   1.415       .  A
C1438      C2097   1.484       .  S
C1438      C2089   1.414   1_545  A
C1438      C1439   1.410       .  A
C1439      C1463   1.480       .  S
C1439      C1440   1.418       .  A
C1441      C1890   1.482       .  S
C1441      N1442   1.359       .  A
C1441      N1446   1.356       .  A
N1442      C2095   1.357       .  A
C1443      C1561   1.471       .  S
C1443      N2094   1.356   1_545  A
C1443      N1444   1.357       .  A
N1444      C2097   1.360       .  A
C1445      C2090   1.481       .  S
C1445      N2096   1.359       .  A
C1445      N1446   1.356       .  A
C1447      C1521   1.472       .  S
C1447      N1448   1.357       .  A
C1447      N1452   1.351       .  A
N1448      C1449   1.361       .  A
C1449      C2087   1.485       .  S
C1449      N2102   1.360       .  A
N1450      C2101   1.362   1_545  A
N1450      C1451   1.359       .  A
C1451      C1721   1.481       .  S
C1451      N2104   1.353   1_545  A
N1452      C2103   1.352       .  A
C1453      C1541   1.482       .  S
C1453      N1454   1.355   1_655  A
C1453      N1458   1.356       .  A
C1455      C1841   1.486       .  S
C1455      N1456   1.358       .  A
C1457      N1458   1.359   1_455  A
C1459      C1490   1.477       .  S
C1459      N1460   1.354       .  A
C1459      N1464   1.355       .  A
N1460      C1461   1.352       .  A
C1461      C1761   1.468       .  S
C1461      N1462   1.357       .  A
N1462      C1463   1.360       .  A
C1463      N1464   1.357       .  A
C1465      C1781   1.474       .  S
C1465      N1466   1.357       .  A
C1465      N1470   1.357       .  A
C1467      C1501   1.476       .  S
C1467      N1468   1.359       .  A
C1469      N1470   1.358       .  A
C1471      C1590   1.474       .  S
C1471      N1472   1.357       .  A
C1471      N1476   1.359       .  A
N1472      C1473   1.358       .  A
C1473      C1910   1.485       .  S
C1473      N1474   1.357       .  A
N1474      C1475   1.358       .  A
C1475      N1476   1.361       .  A
C1477      C1478   1.401       .  A
C1477      C1482   1.394       .  A
C1477      H1487   1.084       .  S
C1478      C1483   1.472       .  S
C1478      C1479   1.406       .  A
C1479      C1480   1.392       .  A
C1479      F1484   1.358       .  S
C1480      C1481   1.402       .  A
C1480      H1485   1.084       .  S
C1481      C1482   1.409       .  A
C1482      F1486   1.358       .  S
C1483      C1488   1.402       .  A
C1483      C1492   1.403       .  A
C1488      C1489   1.388       .  A
C1488      F1493   1.358       .  S
C1489      C1490   1.406       .  A
C1489      H1494   1.083       .  S
C1490      C1491   1.411       .  A
C1491      C1492   1.398       .  A
C1491      F1495   1.358       .  S
C1492      H1496   1.084       .  S
C1497      C1498   1.407       .  A
C1497      C1502   1.397       .  A
C1497      H1507   1.082       .  S
C1498      C1503   1.489       .  S
C1498      C1499   1.409       .  A
C1499      C1500   1.397       .  A
C1499      F1504   1.357       .  S
C1500      C1501   1.404       .  A
C1500      H1505   1.083       .  S
C1501      C1502   1.403       .  A
C1502      F1506   1.355       .  S
C1503      C1508   1.409       .  A
C1503      C1512   1.408       .  A
C1508      C1509   1.396       .  A
C1508      F1513   1.357       .  S
C1509      C1510   1.402       .  A
C1509      H1514   1.084       .  S
C1510      C1511   1.405       .  A
C1511      C1512   1.399       .  A
C1511      F1515   1.358       .  S
C1512      H1516   1.083       .  S
C1517      C1518   1.400       .  A
C1517      C1522   1.391       .  A
C1517      H1527   1.084       .  S
C1518      C1523   1.475       .  S
C1518      C1519   1.407       .  A
C1519      C1520   1.399       .  A
C1519      F1524   1.357       .  S
C1520      C1521   1.403       .  A
C1520      H1525   1.083       .  S
C1521      C1522   1.409       .  A
C1522      F1526   1.358       .  S
C1523      C1528   1.402       .  A
C1523      C1532   1.403       .  A
C1528      C1529   1.396       .  A
C1528      F1533   1.358       .  S
C1529      C1530   1.409       .  A
C1529      H1534   1.083       .  S
C1530      C1531   1.409       .  A
C1531      C1532   1.396       .  A
C1531      F1535   1.357       .  S
C1532      H1536   1.083       .  S
C1537      C1538   1.404       .  A
C1537      C1542   1.399       .  A
C1537      H1547   1.083       .  S
C1538      C1543   1.480       .  S
C1538      C1539   1.405       .  A
C1539      C1540   1.393       .  A
C1539      F1544   1.358       .  S
C1540      C1541   1.407       .  A
C1540      H1545   1.083       .  S
C1541      C1542   1.410       .  A
C1542      F1546   1.357       .  S
C1543      C1548   1.406       .  A
C1543      C1552   1.404       .  A
C1548      C1549   1.393       .  A
C1548      F1553   1.358       .  S
C1549      C1550   1.405       .  A
C1549      H1554   1.083       .  S
C1550      C1551   1.410       .  A
C1551      C1552   1.399       .  A
C1551      F1555   1.357       .  S
C1552      H1556   1.084       .  S
C1557      C1558   1.407       .  A
C1557      C1562   1.394       .  A
C1557      H1567   1.082       .  S
C1558      C1563   1.493       .  S
C1558      C1559   1.413       .  A
C1559      C1560   1.402       .  A
C1559      F1564   1.357       .  S
C1560      C1561   1.402       .  A
C1560      H1565   1.083       .  S
C1561      C1562   1.402       .  A
C1562      F2218   1.357   1_545  S
C1563      C1568   1.412       .  A
C1563      C1572   1.408       .  A
F1566      C2214   1.357       .  S
C1568      C1569   1.396       .  A
C1568      F1573   1.357       .  S
C1569      C1570   1.401       .  A
C1569      H1574   1.084       .  S
C1570      C1571   1.405       .  A
C1571      C1572   1.400       .  A
C1571      F1575   1.358       .  S
C1572      H1576   1.083       .  S
C1577      C1578   1.410       .  A
C1577      C1582   1.402       .  A
C1577      H1587   1.082       .  S
C1578      C1583   1.495       .  S
C1578      C1579   1.411       .  A
C1579      C1580   1.397       .  A
C1579      F1584   1.357       .  S
C1580      C1581   1.403       .  A
C1580      H1585   1.084       .  S
C1581      C1582   1.406       .  A
C1582      F1586   1.357       .  S
C1583      C1588   1.412       .  A
C1583      C1592   1.409       .  A
C1588      C1589   1.401       .  A
C1588      F1593   1.357       .  S
C1589      C1590   1.402       .  A
C1589      H1594   1.083       .  S
C1590      C1591   1.404       .  A
C1591      C1592   1.399       .  A
C1591      F1595   1.358       .  S
C1592      H1596   1.082       .  S
C1597      C1598   1.403       .  A
C1597      C1602   1.399       .  A
C1597      H1607   1.083       .  S
C1598      C1603   1.478       .  S
C1598      C1599   1.404       .  A
C1599      C1600   1.392       .  A
C1599      F1604   1.358       .  S
C1600      C1601   1.405       .  A
C1600      H1605   1.083       .  S
C1601      C1602   1.411       .  A
C1602      F1606   1.357       .  S
C1603      C1608   1.406       .  A
C1603      C1612   1.401       .  A
C1608      C1609   1.399       .  A
C1608      F1613   1.357       .  S
C1609      C1610   1.406       .  A
C1609      H1614   1.083       .  S
C1610      C1611   1.411       .  A
C1611      C1612   1.391       .  A
C1611      F1615   1.358       .  S
C1612      H1616   1.083       .  S
C1617      C1618   1.401       .  A
C1617      C1622   1.394       .  A
C1617      H1627   1.084       .  S
C1618      C1623   1.478       .  S
C1618      C1619   1.406       .  A
C1619      C1620   1.398       .  A
C1619      F1624   1.357       .  S
C1620      C1621   1.405       .  A
C1620      H1625   1.083       .  S
C1621      C1622   1.411       .  A
C1622      F1626   1.358       .  S
C1623      C1628   1.406       .  A
C1623      C1632   1.401       .  A
C1628      C1629   1.396       .  A
C1628      F1633   1.358       .  S
C1629      C1630   1.405       .  A
C1629      H1634   1.083       .  S
C1630      C1631   1.411       .  A
C1631      C1632   1.396       .  A
C1631      F1635   1.358       .  S
C1632      H1636   1.083       .  S
C1637      C1638   1.399       .  A
C1637      C1642   1.395       .  A
C1637      H1647   1.083       .  S
C1638      C1643   1.482       .  S
C1638      C1639   1.406       .  A
C1639      C1640   1.404       .  A
C1639      F1644   1.357       .  S
C1640      C1641   1.409       .  A
C1640      H1645   1.083       .  S
C1641      C1642   1.414       .  A
C1643      C1648   1.406       .  A
C1643      C1652   1.403       .  A
C1648      C1649   1.398       .  A
C1648      F1653   1.357       .  S
C1649      C1650   1.403       .  A
C1649      H1654   1.084       .  S
C1650      C1651   1.411       .  A
C1651      C1652   1.403       .  A
C1651      F1655   1.358       .  S
C1652      H1656   1.084       .  S
C1657      C1658   1.404       .  A
C1657      C1662   1.401       .  A
C1657      H1667   1.083       .  S
C1658      C1663   1.483       .  S
C1658      C1659   1.406       .  A
C1659      C1660   1.394       .  A
C1659      F1664   1.358       .  S
C1660      C1661   1.406       .  A
C1660      H1665   1.083       .  S
C1661      C1662   1.410       .  A
C1662      F1666   1.357       .  S
C1663      C1668   1.407       .  A
C1663      C1672   1.401       .  A
C1668      C1669   1.402       .  A
C1668      F1673   1.357       .  S
C1669      C1670   1.408       .  A
C1669      H1674   1.084       .  S
C1670      C1671   1.411       .  A
C1671      C1672   1.393       .  A
C1671      F1675   1.357       .  S
C1672      H1676   1.084       .  S
C1677      C1678   1.406       .  A
C1677      C1682   1.400       .  A
C1677      H1687   1.083       .  S
C1678      C1683   1.485       .  S
C1678      C1679   1.407       .  A
C1679      C1680   1.391       .  A
C1679      F1684   1.358       .  S
C1680      C1681   1.405       .  A
C1680      H1685   1.083       .  S
C1681      C1682   1.410       .  A
C1682      F1686   1.357       .  S
C1683      C1688   1.408       .  A
C1683      C1692   1.404       .  A
C1688      C1689   1.399       .  A
C1688      F1693   1.357       .  S
C1689      C1690   1.407       .  A
C1689      H1694   1.083       .  S
C1690      C1691   1.407       .  A
C1691      C1692   1.392       .  A
C1691      F1695   1.358       .  S
C1692      H1696   1.083       .  S
C1697      C1698   1.404       .  A
C1697      C1702   1.393       .  A
C1697      H1707   1.083       .  S
C1698      C1703   1.488       .  S
C1698      C1699   1.408       .  A
C1699      C1700   1.403       .  A
C1699      F1704   1.357       .  S
C1700      C1701   1.408       .  A
C1700      H1705   1.083       .  S
C1701      C1702   1.409       .  A
C1702      F1706   1.358       .  S
C1703      C1708   1.406       .  A
C1703      C1712   1.407       .  A
C1708      C1709   1.392       .  A
C1708      F1713   1.358       .  S
C1709      C1710   1.406       .  A
C1709      H2366   1.083       .  S
C1710      C1711   1.411       .  A
C1711      C1712   1.403       .  A
C1711      F1715   1.357       .  S
C1712      H1716   1.083       .  S
H1714      C2361   1.083       .  S
C1717      C1718   1.405       .  A
C1717      C1722   1.399       .  A
C1717      H1727   1.083       .  S
C1718      C1723   1.475       .  S
C1718      C1719   1.401       .  A
C1719      C1720   1.391       .  A
C1719      F1724   1.358       .  S
C1720      C1721   1.409       .  A
C1720      H1725   1.083       .  S
C1721      C1722   1.409       .  A
C1722      F1726   1.357       .  S
C1723      C1728   1.407       .  A
C1723      C1732   1.401       .  A
C1728      C1729   1.396       .  A
C1728      F1733   1.358       .  S
C1729      C1730   1.404       .  A
C1729      H1734   1.084       .  S
C1730      C1731   1.407       .  A
C1731      C1732   1.395       .  A
C1731      F1735   1.357       .  S
C1732      H1736   1.084       .  S
C1737      C1738   1.403       .  A
C1737      C1742   1.393       .  A
C1737      H1747   1.084       .  S
C1738      C1743   1.477       .  S
C1738      C1739   1.405       .  A
C1739      C1740   1.397       .  A
C1739      F1744   1.357       .  S
C1740      C1741   1.408       .  A
C1740      H1745   1.083       .  S
C1741      C1742   1.408       .  A
C1742      F1746   1.357       .  S
C1743      C1748   1.405       .  A
C1743      C1752   1.404       .  A
C1748      C1749   1.392       .  A
C1748      F1753   1.358       .  S
C1749      C1750   1.405       .  A
C1749      H1754   1.083       .  S
C1750      C1751   1.409       .  A
C1751      C1752   1.399       .  A
C1751      F1755   1.357       .  S
C1752      H1756   1.083       .  S
C1757      C1758   1.403       .  A
C1757      C1762   1.394       .  A
C1757      H1767   1.083       .  S
C1758      C1763   1.480       .  S
C1758      C1759   1.409       .  A
C1759      C1760   1.398       .  A
C1759      F1764   1.357       .  S
C1760      C1761   1.402       .  A
C1760      H1765   1.084       .  S
C1761      C1762   1.406       .  A
C1762      F1766   1.358       .  S
C1763      C1768   1.408       .  A
C1763      C1772   1.402       .  A
C1768      C1769   1.398       .  A
C1768      F1773   1.358       .  S
C1769      C1770   1.404       .  A
C1769      H1774   1.083       .  S
C1770      C1771   1.408       .  A
C1771      C1772   1.395       .  A
C1771      F1775   1.358       .  S
C1772      H1776   1.083       .  S
C1777      C1778   1.406       .  A
C1777      C1782   1.398       .  A
C1777      H1787   1.083       .  S
C1778      C1783   1.483       .  S
C1778      C1779   1.407       .  A
C1779      C1780   1.395       .  A
C1779      F1784   1.358       .  S
C1780      C1781   1.404       .  A
C1780      H1785   1.083   1_655  S
C1781      C1782   1.406       .  A
C1782      F1786   1.357       .  S
C1783      C1788   1.407       .  A
C1783      C1792   1.406       .  A
C1788      C1789   1.397       .  A
C1788      F1793   1.357       .  S
C1789      C1790   1.405       .  A
C1789      H1794   1.084       .  S
C1790      C1791   1.405       .  A
C1791      C1792   1.397       .  A
C1791      F1795   1.358       .  S
C1792      H1796   1.083       .  S
C1797      C1798   1.402       .  A
C1797      C1802   1.393       .  A
C1797      H1807   1.083       .  S
C1798      C1803   1.483       .  S
C1798      C1799   1.407       .  A
C1799      C1800   1.403       .  A
C1799      F1804   1.357       .  S
C1800      C1801   1.408       .  A
C1800      H1805   1.083       .  S
C1801      C1802   1.410       .  A
C1802      F1806   1.358       .  S
C1803      C1808   1.405       .  A
C1803      C1812   1.405       .  A
C1808      C1809   1.394       .  A
C1808      F1813   1.358       .  S
C1809      C1810   1.407       .  A
C1809      H1814   1.083       .  S
C1810      C1811   1.411       .  A
C1811      C1812   1.402       .  A
C1811      F1815   1.356       .  S
C1812      H1816   1.083       .  S
C1817      C1818   1.402       .  A
C1817      C1822   1.396       .  A
C1817      H1827   1.083       .  S
C1818      C1823   1.481       .  S
C1818      C1819   1.406       .  A
C1819      C1820   1.401       .  A
C1819      F1824   1.357       .  S
C1820      C1821   1.407       .  A
C1820      H1825   1.083       .  S
C1821      C1822   1.411       .  A
C1822      F1826   1.358       .  S
C1823      C1828   1.405       .  A
C1823      C1832   1.404       .  A
C1828      C1829   1.396       .  A
C1828      F1833   1.358       .  S
C1829      C1830   1.407       .  A
C1829      H1834   1.084       .  S
C1830      C1831   1.409       .  A
C1831      C1832   1.400       .  A
C1831      F1835   1.357       .  S
C1832      H1836   1.084       .  S
C1837      C1838   1.404       .  A
C1837      C1842   1.402       .  A
C1837      H1847   1.083       .  S
C1838      C1843   1.478       .  S
C1838      C1839   1.402       .  A
C1839      C1840   1.394       .  A
C1839      F1844   1.358       .  S
C1840      C1841   1.409       .  A
C1840      H1845   1.083       .  S
C1841      C1842   1.411       .  A
C1842      F1846   1.357       .  S
C1843      C1848   1.404       .  A
C1843      C1852   1.403       .  A
C1848      C1849   1.393       .  A
C1848      F1853   1.358       .  S
C1849      C1850   1.406       .  A
C1849      H1854   1.083       .  S
C1850      C1851   1.412       .  A
C1851      C1852   1.402       .  A
C1851      F1855   1.357       .  S
C1852      H1856   1.084       .  S
C1857      C1858   1.400       .  A
C1857      C1862   1.394       .  A
C1857      H1867   1.083       .  S
C1858      C1863   1.476       .  S
C1858      C1859   1.406       .  A
C1859      C1860   1.401       .  A
C1859      F1864   1.357       .  S
C1860      C1861   1.406       .  A
C1860      H1865   1.083       .  S
C1861      C1862   1.410       .  A
C1862      F1866   1.357       .  S
C1863      C1868   1.405       .  A
C1863      C1872   1.401       .  A
C1868      C1869   1.396       .  A
C1868      F1873   1.358       .  S
C1869      C1870   1.405       .  A
C1869      H1874   1.083       .  S
C1870      C1871   1.411       .  A
C1871      C1872   1.398       .  A
C1871      F1875   1.357       .  S
C1872      H1876   1.083       .  S
C1877      C1878   1.403       .  A
C1877      C1882   1.391       .  A
C1877      H1887   1.083       .  S
C1878      C1883   1.480       .  S
C1878      C1879   1.407       .  A
C1879      C1880   1.400       .  A
C1879      F1884   1.358       .  S
C1880      C1881   1.408       .  A
C1880      H1885   1.083       .  S
C1881      C1882   1.408       .  A
C1882      F1886   1.358       .  S
C1883      C1888   1.406       .  A
C1883      C1892   1.403       .  A
C1888      C1889   1.399       .  A
C1888      F1893   1.358       .  S
C1889      C1890   1.409       .  A
C1889      H1894   1.083       .  S
C1890      C1891   1.408       .  A
C1891      C1892   1.393       .  A
C1891      F1895   1.357       .  S
C1892      H1896   1.084       .  S
C1897      C1898   1.402       .  A
C1897      C1902   1.399       .  A
C1897      H1907   1.084       .  S
C1898      C1903   1.475       .  S
C1898      C1899   1.404       .  A
C1899      C1900   1.394       .  A
C1899      F1904   1.358       .  S
C1900      C1901   1.406       .  A
C1900      H1905   1.084       .  S
C1901      C1902   1.411       .  A
C1902      F1906   1.357       .  S
C1903      C1908   1.403       .  A
C1903      C1912   1.401       .  A
C1908      C1909   1.394       .  A
C1908      F1913   1.358       .  S
C1909      C1910   1.407       .  A
C1909      H1914   1.083       .  S
C1910      C1911   1.413       .  A
C1911      C1912   1.399       .  A
C1911      F1915   1.357       .  S
C1912      H1916   1.084       .  S
C1917      C1918   1.402       .  A
C1917      C1922   1.399       .  A
C1917      H1927   1.084       .  S
C1918      C1923   1.474       .  S
C1918      C1919   1.403       .  A
C1919      C1920   1.394       .  A
C1919      F1924   1.358       .  S
C1920      C1921   1.406       .  A
C1920      H1925   1.083       .  S
C1921      C1922   1.411       .  A
C1922      F1926   1.357       .  S
C1923      C1928   1.405       .  A
C1923      C1932   1.402       .  A
C1928      C1929   1.398       .  A
C1928      F1933   1.358       .  S
C1929      C1930   1.404       .  A
C1929      H1934   1.083       .  S
C1930      C1931   1.406       .  A
C1931      C1932   1.395       .  A
C1931      F2587   1.358       .  S
C1932      H1936   1.083       .  S
F1935      C2583   1.358       .  S
C1937      C1938   1.402       .  A
C1937      C1942   1.398       .  A
C1937      H1947   1.083       .  S
C1938      C1943   1.481       .  S
C1938      C1939   1.407       .  A
C1939      C1940   1.397       .  A
C1939      F1944   1.358       .  S
C1940      C1941   1.405       .  A
C1940      H1945   1.083       .  S
C1941      C1942   1.412       .  A
C1942      F1946   1.358       .  S
C1943      C1948   1.407       .  A
C1943      C1952   1.402       .  A
C1948      C1949   1.399       .  A
C1948      F1953   1.357       .  S
C1949      C1950   1.404       .  A
C1949      H1954   1.083       .  S
C1950      C1951   1.410       .  A
C1951      C1952   1.395       .  A
C1951      F1955   1.358       .  S
C1952      H1956   1.084       .  S
O1957      C1972   1.263       .  A
O1957     Al1965   1.921   1_554  S
C1958      O1968   1.262       .  A
C1958      O1959   1.260       .  A
C1958      C2533   1.477       .  S
O1959     Al1961   1.892       .  S
O1960      C1962   1.264       .  A
O1960     Al1961   1.910       .  S
Al1961     O1969   1.909   1_556  S
Al1961     O1971   1.895   1_556  S
Al1961     O1970   1.786       .  S
C1962      O1975   1.260       .  A
C1962      C2502   1.480       .  S
O1963      C1973   1.263       .  A
O1963     Al1965   1.912       .  S
O1964      C1977   1.263       .  A
O1964     Al1974   1.914   1_554  S
Al1965     O1978   1.889   1_556  S
Al1965     O1975   1.895       .  S
Al1965     O1970   1.782       .  S
O1966      C1973   1.259       .  A
O1966     Al1974   1.899       .  S
O1967      C1976   1.259       .  A
O1967     Al1974   1.884   1_554  S
O1968     Al1974   1.905       .  S
O1969      C1976   1.261       .  A
O1970     Al1974   1.785       .  S
O1971      C1972   1.261       .  A
C1972      C2522   1.485       .  S
C1973      C2553   1.485       .  S
C1976      C2573   1.477       .  S
C1977      O1978   1.261       .  A
C1977      C2593   1.478       .  S
O1979      C1994   1.259       .  A
O1979     Al1987   1.893   1_554  S
C1980      O1990   1.262       .  A
C1980      O1981   1.263       .  A
C1980      C2422   1.475       .  S
O1981     Al1983   1.913       .  S
O1982      C1984   1.260       .  A
O1982     Al1983   1.883       .  S
Al1983     O1991   1.897   1_556  S
Al1983     O1993   1.903   1_556  S
Al1983     O1992   1.782       .  S
C1984      O1997   1.262       .  A
C1984      C2382   1.465       .  S
O1985      C1995   1.257       .  A
O1985     Al1987   1.892       .  S
O1986      C1999   1.262       .  A
O1986     Al1996   1.896   1_554  S
Al1987     O2000   1.917   1_556  S
Al1987     O1997   1.905       .  S
Al1987     O1992   1.778       .  S
O1988      C1995   1.261       .  A
O1988     Al1996   1.914       .  S
O1989      C1998   1.264       .  A
O1989     Al1996   1.914   1_554  S
O1990     Al1996   1.902       .  S
O1991      C1998   1.261       .  A
O1992     Al1996   1.778       .  S
O1993      C1994   1.261       .  A
C1994      C2402   1.477       .  S
C1995      C2442   1.469       .  S
C1998      C2453   1.482       .  S
C1999      O2000   1.265       .  A
C1999      C2473   1.481       .  S
C2001      C2002   1.419   1_455  A
C2002      C2009   1.478       .  S
C2003      C2033   1.487       .  S
C2004      C2039   1.489       .  S
C2005      C2017   1.484       .  S
C2005      C2006   1.416       .  A
C2006      C2021   1.491       .  S
C2007      C2393   1.477       .  S
C2007      N2008   1.353       .  A
C2007      N2012   1.355       .  A
N2008      C2009   1.354       .  A
N2010      C2011   1.359       .  A
C2011      C2362   1.485       .  S
C2013      C2582   1.474       .  S
C2013      N2018   1.355       .  A
N2014      C2015   1.357       .  A
C2015      C2333   1.485       .  S
C2015      N2016   1.358       .  A
N2016      C2017   1.360       .  A
C2019      C2462   1.487       .  S
C2019      N2020   1.359       .  A
C2019      N2024   1.357       .  A
N2020      C2021   1.362       .  A
C2021      N2022   1.360       .  A
N2022      C2023   1.357       .  A
C2023      C2322   1.484       .  S
C2023      N2024   1.354       .  A
C2025      C2513   1.484       .  S
C2025      N2026   1.357       .  A
C2025      N2030   1.354       .  A
N2026      C2027   1.361       .  A
N2028      C2029   1.359       .  A
C2029      C2293   1.481       .  S
C2031      C2273   1.472       .  S
C2031      N2032   1.354       .  A
C2031      N2036   1.353       .  A
N2032      C2033   1.357       .  A
C2033      N2034   1.362       .  A
N2034      C2035   1.360       .  A
C2035      C2602   1.483       .  S
C2035      N2036   1.355       .  A
C2037      C2482   1.484       .  S
C2037      N2038   1.359       .  A
C2039      N2040   1.357       .  A
N2040      C2041   1.356       .  A
C2041      C2253   1.483       .  S
C2041      N2042   1.357       .  A
O2043      C2058   1.263       .  A
O2043     Al2051   1.916       .  S
C2044      O2054   1.260       .  A
C2044      O2045   1.258       .  A
C2044      C2202   1.477       .  S
O2045     Al2047   1.892       .  S
O2046      C2048   1.261       .  A
O2046     Al2047   1.906       .  S
Al2047     O2055   1.919       .  S
Al2047     O2057   1.886       .  S
Al2047     O2056   1.785       .  S
C2048      O2061   1.259       .  A
C2048      C2222   1.474       .  S
O2049      C2059   1.266       .  A
O2049     Al2051   1.919       .  S
O2050      C2063   1.258       .  A
O2050     Al2060   1.902       .  S
Al2051     O2064   1.893       .  S
Al2051     O2061   1.896       .  S
Al2051     O2056   1.789       .  S
O2052      C2059   1.261       .  A
O2052     Al2060   1.893       .  S
O2053      C2062   1.262       .  A
O2053     Al2060   1.896       .  S
O2054     Al2060   1.900       .  S
O2055      C2062   1.264       .  A
O2056     Al2060   1.790       .  S
O2057      C2058   1.259       .  A
C2058      C2342   1.483       .  S
C2059      C2233   1.482       .  S
C2062      C2302   1.484       .  S
C2063      O2064   1.259       .  A
C2063      C2282   1.479       .  S
O2065      C2080   1.259       .  A
O2065     Al2073   1.888       .  S
C2066      O2076   1.263       .  A
C2066      O2067   1.264       .  A
C2066      C2262   1.478       .  S
O2067     Al2069   1.907       .  S
O2068      C2070   1.261       .  A
O2068     Al2069   1.898       .  S
Al2069     O2077   1.902       .  S
Al2069     O2079   1.897       .  S
Al2069     O2078   1.782       .  S
C2070      O2083   1.264       .  A
C2070      C2313   1.481       .  S
O2071      C2081   1.259       .  A
O2071     Al2073   1.894       .  S
O2072      C2085   1.262       .  A
O2072     Al2082   1.888       .  S
Al2073     O2086   1.919       .  S
Al2073     O2083   1.910       .  S
Al2073     O2078   1.782       .  S
O2074      C2081   1.262       .  A
O2074     Al2082   1.919       .  S
O2075      C2084   1.262       .  A
O2075     Al2082   1.921       .  S
O2076     Al2082   1.894       .  S
O2077      C2084   1.259       .  A
O2078     Al2082   1.784       .  S
O2079      C2080   1.259       .  A
C2080      C2133   1.472       .  S
C2081      C2353   1.486       .  S
C2084      C2162   1.475       .  S
C2085      O2086   1.266       .  A
C2085      C2182   1.481       .  S
C2088      C2127   1.487       .  S
C2090      C2091   1.412       .  A
C2091      C2115   1.483       .  S
C2091      C2092   1.418       .  A
C2093      C2542   1.481       .  S
C2093      N2094   1.357       .  A
C2093      N2098   1.355       .  A
C2095      C2213   1.471       .  S
C2095      N2096   1.356       .  A
C2097      N2098   1.356   1_545  A
C2099      C2173   1.471       .  S
C2099      N2100   1.357       .  A
C2099      N2104   1.350       .  A
N2100      C2101   1.362       .  A
N2102      C2103   1.357       .  A
C2103      C2373   1.478       .  S
C2105      C2193   1.480       .  S
C2105      N2106   1.353   1_655  A
C2105      N2110   1.354       .  A
C2107      C2493   1.487       .  S
C2107      N2108   1.361       .  A
C2109      N2110   1.358   1_455  A
C2111      C2142   1.477       .  S
C2111      N2112   1.353       .  A
C2111      N2116   1.355       .  A
N2112      C2113   1.352       .  A
C2113      C2413   1.475       .  S
C2113      N2114   1.360       .  A
N2114      C2115   1.363       .  A
C2115      N2116   1.357       .  A
C2117      C2433   1.473       .  S
C2117      N2118   1.355   1_655  A
C2117      N2122   1.358       .  A
C2119      C2153   1.478       .  S
C2119      N2120   1.359       .  A
C2121      N2122   1.359       .  A
C2123      C2242   1.485       .  S
C2123      N2124   1.358       .  A
C2123      N2128   1.357       .  A
N2124      C2125   1.359       .  A
C2125      C2562   1.487       .  S
C2125      N2126   1.356       .  A
N2126      C2127   1.359       .  A
C2127      N2128   1.358       .  A
C2129      C2130   1.401       .  A
C2129      C2134   1.393       .  A
C2129      H2139   1.084       .  S
C2130      C2135   1.473       .  S
C2130      C2131   1.406       .  A
C2131      C2132   1.394       .  A
C2131      F2136   1.358       .  S
C2132      C2133   1.404       .  A
C2132      H2137   1.084       .  S
C2133      C2134   1.409       .  A
C2134      F2138   1.358       .  S
C2135      C2140   1.403       .  A
C2135      C2144   1.403       .  A
C2140      C2141   1.390       .  A
C2140      F2145   1.358       .  S
C2141      C2142   1.407       .  A
C2141      H2146   1.083       .  S
C2142      C2143   1.410       .  A
C2143      C2144   1.396       .  A
C2143      F2147   1.357       .  S
C2144      H2148   1.084       .  S
C2149      C2150   1.407       .  A
C2149      C2154   1.398       .  A
C2149      H2159   1.083       .  S
C2150      C2155   1.487       .  S
C2150      C2151   1.407       .  A
C2151      C2152   1.398       .  A
C2151      F2156   1.358       .  S
C2152      C2153   1.405       .  A
C2152      H2157   1.083       .  S
C2153      C2154   1.405       .  A
C2154      F2158   1.356       .  S
C2155      C2160   1.407       .  A
C2155      C2164   1.408       .  A
C2160      C2161   1.397       .  A
C2160      F2165   1.358       .  S
C2161      C2162   1.403       .  A
C2161      H2166   1.084       .  S
C2162      C2163   1.405       .  A
C2163      C2164   1.400       .  A
C2163      F2167   1.357       .  S
C2164      H2168   1.083       .  S
C2169      C2170   1.402       .  A
C2169      C2174   1.394       .  A
C2169      H2179   1.083       .  S
C2170      C2175   1.479       .  S
C2170      C2171   1.408       .  A
C2171      C2172   1.399       .  A
C2171      F2176   1.357       .  S
C2172      C2173   1.402       .  A
C2172      H2177   1.083       .  S
C2173      C2174   1.408       .  A
C2174      F2178   1.358       .  S
C2175      C2180   1.404       .  A
C2175      C2184   1.403       .  A
C2180      C2181   1.397       .  A
C2180      F2185   1.358       .  S
C2181      C2182   1.407       .  A
C2181      H2186   1.083       .  S
C2182      C2183   1.409       .  A
C2183      C2184   1.396       .  A
C2183      F2187   1.358       .  S
C2184      H2188   1.083       .  S
C2189      C2190   1.402       .  A
C2189      C2194   1.398       .  A
C2189      H2199   1.084       .  S
C2190      C2195   1.474       .  S
C2190      C2191   1.403       .  A
C2191      C2192   1.391       .  A
C2191      F2196   1.358       .  S
C2192      C2193   1.407       .  A
C2192      H2197   1.083       .  S
C2193      C2194   1.411       .  A
C2194      F2198   1.357       .  S
C2195      C2200   1.404       .  A
C2195      C2204   1.403       .  A
C2200      C2201   1.390       .  A
C2200      F2205   1.358       .  S
C2201      C2202   1.405       .  A
C2201      H2206   1.084       .  S
C2202      C2203   1.410       .  A
C2203      C2204   1.399       .  A
C2203      F2207   1.357       .  S
C2204      H2208   1.084       .  S
C2209      C2210   1.407       .  A
C2209      C2214   1.395       .  A
C2209      H2219   1.083       .  S
C2210      C2215   1.490       .  S
C2210      C2211   1.411       .  A
C2211      C2212   1.401       .  A
C2211      F2216   1.357       .  S
C2212      C2213   1.402       .  A
C2212      H2217   1.083       .  S
C2213      C2214   1.403       .  A
C2215      C2220   1.410       .  A
C2215      C2224   1.408       .  A
C2220      C2221   1.395       .  A
C2220      F2225   1.357       .  S
C2221      C2222   1.401       .  A
C2221      H2226   1.084       .  S
C2222      C2223   1.406       .  A
C2223      C2224   1.402       .  A
C2223      F2227   1.357       .  S
C2224      H2228   1.083       .  S
C2229      C2230   1.404       .  A
C2229      C2234   1.401       .  A
C2229      H2239   1.084       .  S
C2230      C2235   1.481       .  S
C2230      C2231   1.405       .  A
C2231      C2232   1.396       .  A
C2231      F2236   1.357       .  S
C2232      C2233   1.406       .  A
C2232      H2237   1.083       .  S
C2233      C2234   1.410       .  A
C2234      F2238   1.357       .  S
C2235      C2240   1.405       .  A
C2235      C2244   1.403       .  A
C2240      C2241   1.397       .  A
C2240      F2245   1.358       .  S
C2241      C2242   1.407       .  A
C2241      H2246   1.083       .  S
C2242      C2243   1.411       .  A
C2243      C2244   1.399       .  A
C2243      F2247   1.357       .  S
C2244      H2248   1.083       .  S
C2249      C2250   1.402       .  A
C2249      C2254   1.399       .  A
C2249      H2259   1.083       .  S
C2250      C2255   1.476       .  S
C2250      C2251   1.404       .  A
C2251      C2252   1.392       .  A
C2251      F2256   1.358       .  S
C2252      C2253   1.406       .  A
C2252      H2257   1.083       .  S
C2253      C2254   1.413       .  A
C2254      F2258   1.357       .  S
C2255      C2260   1.405       .  A
C2255      C2264   1.401       .  A
C2260      C2261   1.399       .  A
C2260      F2265   1.357       .  S
C2261      C2262   1.407       .  A
C2261      H2266   1.083       .  S
C2262      C2263   1.410       .  A
C2263      C2264   1.391       .  A
C2263      F2267   1.358       .  S
C2264      H2268   1.083       .  S
C2269      C2270   1.402       .  A
C2269      C2274   1.393       .  A
C2269      H2279   1.084       .  S
C2270      C2275   1.477       .  S
C2270      C2271   1.406       .  A
C2271      C2272   1.396       .  A
C2271      F2276   1.357       .  S
C2272      C2273   1.404       .  A
C2272      H2277   1.083       .  S
C2273      C2274   1.407       .  A
C2274      F2278   1.358       .  S
C2275      C2280   1.406       .  A
C2275      C2284   1.401       .  A
C2280      C2281   1.394       .  A
C2280      F2285   1.358       .  S
C2281      C2282   1.404       .  A
C2281      H2286   1.083       .  S
C2282      C2283   1.412       .  A
C2283      C2284   1.396       .  A
C2283      F2287   1.358       .  S
C2284      H2288   1.083       .  S
C2289      C2290   1.402       .  A
C2289      C2294   1.395       .  A
C2289      H2299   1.083       .  S
C2290      C2295   1.482       .  S
C2290      C2291   1.407       .  A
C2291      C2292   1.401       .  A
C2291      F2296   1.357       .  S
C2292      C2293   1.406       .  A
C2292      H2297   1.083       .  S
C2293      C2294   1.409       .  A
C2295      C2300   1.406       .  A
C2295      C2304   1.403       .  A
C2300      C2301   1.397       .  A
C2300      F2305   1.358       .  S
C2301      C2302   1.405       .  A
C2301      H2306   1.083       .  S
C2302      C2303   1.412       .  A
C2303      C2304   1.400       .  A
C2303      F2307   1.357       .  S
C2304      H2308   1.084       .  S
C2309      C2310   1.405       .  A
C2309      C2314   1.402       .  A
C2309      H2319   1.083       .  S
C2310      C2315   1.483       .  S
C2310      C2311   1.406       .  A
C2311      C2312   1.394       .  A
C2311      F2316   1.358       .  S
C2312      C2313   1.405       .  A
C2312      H2317   1.083       .  S
C2313      C2314   1.410       .  A
C2314      F2318   1.357       .  S
C2315      C2320   1.407       .  A
C2315      C2324   1.402       .  A
C2320      C2321   1.400       .  A
C2320      F2325   1.357       .  S
C2321      C2322   1.407       .  A
C2321      H2326   1.083       .  S
C2322      C2323   1.411       .  A
C2323      C2324   1.395       .  A
C2323      F2327   1.357       .  S
C2324      H2328   1.084       .  S
C2329      C2330   1.407       .  A
C2329      C2334   1.400       .  A
C2329      H2339   1.083       .  S
C2330      C2335   1.490       .  S
C2330      C2331   1.408       .  A
C2331      C2332   1.393       .  A
C2331      F2336   1.357       .  S
C2332      C2333   1.406       .  A
C2332      H2337   1.083       .  S
C2333      C2334   1.410       .  A
C2334      F2338   1.357       .  S
C2335      C2340   1.409       .  A
C2335      C2344   1.406       .  A
C2340      C2341   1.400       .  A
C2340      F2345   1.357       .  S
C2341      C2342   1.407       .  A
C2341      H2346   1.083       .  S
C2342      C2343   1.408       .  A
C2343      C2344   1.395       .  A
C2343      F2347   1.358       .  S
C2344      H2348   1.083       .  S
C2349      C2350   1.405       .  A
C2349      C2354   1.396       .  A
C2349      H2359   1.083       .  S
C2350      C2355   1.489       .  S
C2350      C2351   1.408       .  A
C2351      C2352   1.400       .  A
C2351      F2356   1.357       .  S
C2352      C2353   1.408       .  A
C2352      H2357   1.083       .  S
C2353      C2354   1.409       .  A
C2354      F2358   1.357       .  S
C2355      C2360   1.407       .  A
C2355      C2364   1.407       .  A
C2360      C2361   1.393       .  A
C2360      F2365   1.357       .  S
C2361      C2362   1.406       .  A
C2362      C2363   1.410       .  A
C2363      C2364   1.402       .  A
C2363      F2367   1.357       .  S
C2364      H2368   1.083       .  S
C2369      C2370   1.402       .  A
C2369      C2374   1.396       .  A
C2369      H2379   1.084       .  S
C2370      C2375   1.469       .  S
C2370      C2371   1.400       .  A
C2371      C2372   1.390       .  A
C2371      F2376   1.358       .  S
C2372      C2373   1.409       .  A
C2372      H2377   1.083       .  S
C2373      C2374   1.409       .  A
C2374      F2378   1.357       .  S
C2375      C2380   1.405       .  A
C2375      C2384   1.401       .  A
C2380      C2381   1.394       .  A
C2380      F2385   1.358       .  S
C2381      C2382   1.402       .  A
C2381      H2386   1.084       .  S
C2382      C2383   1.406       .  A
C2383      C2384   1.393       .  A
C2383      F2387   1.358       .  S
C2384      H2388   1.084       .  S
C2389      C2390   1.402       .  A
C2389      C2394   1.392       .  A
C2389      H2399   1.083       .  S
C2390      C2395   1.475       .  S
C2390      C2391   1.404       .  A
C2391      C2392   1.396       .  A
C2391      F2396   1.358       .  S
C2392      C2393   1.408       .  A
C2392      H2397   1.083       .  S
C2393      C2394   1.409       .  A
C2394      F2398   1.357       .  S
C2395      C2400   1.404       .  A
C2395      C2404   1.403       .  A
C2400      C2401   1.392       .  A
C2400      F2405   1.358       .  S
C2401      C2402   1.406       .  A
C2401      H2406   1.083       .  S
C2402      C2403   1.409       .  A
C2403      C2404   1.397       .  A
C2403      F2407   1.357       .  S
C2404      H2408   1.083       .  S
C2409      C2410   1.404       .  A
C2409      C2414   1.395       .  A
C2409      H2419   1.083       .  S
C2410      C2415   1.486       .  S
C2410      C2411   1.411       .  A
C2411      C2412   1.399       .  A
C2411      F2416   1.357       .  S
C2412      C2413   1.402       .  A
C2412      H2417   1.084       .  S
C2413      C2414   1.409       .  A
C2414      F2418   1.358       .  S
C2415      C2420   1.411       .  A
C2415      C2424   1.403       .  A
C2420      C2421   1.399       .  A
C2420      F2425   1.358       .  S
C2421      C2422   1.403       .  A
C2421      H2426   1.083       .  S
C2422      C2423   1.407       .  A
C2423      C2424   1.394       .  A
C2423      F2427   1.358       .  S
C2424      H2428   1.083       .  S
C2429      C2430   1.405       .  A
C2429      C2434   1.397       .  A
C2429      H2439   1.083       .  S
C2430      C2435   1.478       .  S
C2430      C2431   1.405       .  A
C2431      C2432   1.395       .  A
C2431      F2436   1.358       .  S
C2432      C2433   1.405       .  A
C2432      H2437   1.083   1_655  S
C2433      C2434   1.406       .  A
C2434      F2438   1.357       .  S
C2435      C2440   1.405       .  A
C2435      C2444   1.406       .  A
C2440      C2441   1.395       .  A
C2440      F2445   1.357       .  S
C2441      C2442   1.403       .  A
C2441      H2446   1.084       .  S
C2442      C2443   1.404       .  A
C2443      C2444   1.397       .  A
C2443      F2447   1.358       .  S
C2444      H2448   1.084       .  S
C2449      C2450   1.403       .  A
C2449      C2454   1.393       .  A
C2449      H2459   1.083       .  S
C2450      C2455   1.482       .  S
C2450      C2451   1.406       .  A
C2451      C2452   1.401       .  A
C2451      F2456   1.357       .  S
C2452      C2453   1.408       .  A
C2452      H2457   1.083       .  S
C2453      C2454   1.409       .  A
C2454      F2458   1.358       .  S
C2455      C2460   1.404       .  A
C2455      C2464   1.405       .  A
C2460      C2461   1.392       .  A
C2460      F2465   1.358       .  S
C2461      C2462   1.407       .  A
C2461      H2466   1.083       .  S
C2462      C2463   1.412       .  A
C2463      C2464   1.403       .  A
C2463      F2467   1.357       .  S
C2464      H2468   1.083       .  S
C2469      C2470   1.402       .  A
C2469      C2474   1.394       .  A
C2469      H2479   1.083       .  S
C2470      C2475   1.481       .  S
C2470      C2471   1.406       .  A
C2471      C2472   1.400       .  A
C2471      F2476   1.357       .  S
C2472      C2473   1.407       .  A
C2472      H2477   1.083       .  S
C2473      C2474   1.409       .  A
C2474      F2478   1.358       .  S
C2475      C2480   1.405       .  A
C2475      C2484   1.403       .  A
C2480      C2481   1.396       .  A
C2480      F2485   1.358       .  S
C2481      C2482   1.407       .  A
C2481      H2486   1.083       .  S
C2482      C2483   1.410       .  A
C2483      C2484   1.399       .  A
C2483      F2487   1.355       .  S
C2484      H2488   1.084       .  S
C2489      C2490   1.402       .  A
C2489      C2494   1.401       .  A
C2489      H2499   1.083       .  S
C2490      C2495   1.475       .  S
C2490      C2491   1.401       .  A
C2491      C2492   1.393       .  A
C2491      F2496   1.358       .  S
C2492      C2493   1.409       .  A
C2492      H2497   1.083       .  S
C2493      C2494   1.411       .  A
C2494      F2498   1.355       .  S
C2495      C2500   1.403       .  A
C2495      C2504   1.403       .  A
C2500      C2501   1.392       .  A
C2500      F2505   1.358       .  S
C2501      C2502   1.405       .  A
C2501      H2506   1.083       .  S
C2502      C2503   1.411       .  A
C2503      C2504   1.402       .  A
C2503      F2507   1.358       .  S
C2504      H2508   1.084       .  S
C2509      C2510   1.402       .  A
C2509      C2514   1.395       .  A
C2509      H2519   1.083       .  S
C2510      C2515   1.483       .  S
C2510      C2511   1.407       .  A
C2511      C2512   1.401       .  A
C2511      F2516   1.357       .  S
C2512      C2513   1.407       .  A
C2512      H2517   1.083       .  S
C2513      C2514   1.411       .  A
C2514      F2518   1.357       .  S
C2515      C2520   1.407       .  A
C2515      C2524   1.403       .  A
C2520      C2521   1.398       .  A
C2520      F2525   1.358       .  S
C2521      C2522   1.406       .  A
C2521      H2526   1.083       .  S
C2522      C2523   1.411       .  A
C2523      C2524   1.400       .  A
C2523      F2527   1.357       .  S
C2524      H2528   1.083       .  S
C2529      C2530   1.402       .  A
C2529      C2534   1.392       .  A
C2529      H2539   1.084       .  S
C2530      C2535   1.477       .  S
C2530      C2531   1.406       .  A
C2531      C2532   1.399       .  A
C2531      F2536   1.358       .  S
C2532      C2533   1.407       .  A
C2532      H2537   1.083       .  S
C2533      C2534   1.408       .  A
C2534      F2538   1.358       .  S
C2535      C2540   1.405       .  A
C2535      C2544   1.402       .  A
C2540      C2541   1.398       .  A
C2540      F2545   1.358       .  S
C2541      C2542   1.409       .  A
C2541      H2546   1.083       .  S
C2542      C2543   1.409       .  A
C2543      C2544   1.393       .  A
C2543      F2547   1.357       .  S
C2544      H2548   1.084       .  S
C2549      C2550   1.404       .  A
C2549      C2554   1.404       .  A
C2549      H2559   1.084       .  S
C2550      C2555   1.481       .  S
C2550      C2551   1.404       .  A
C2551      C2552   1.392       .  A
C2551      F2556   1.358       .  S
C2552      C2553   1.405       .  A
C2552      H2557   1.083       .  S
C2553      C2554   1.412       .  A
C2554      F2558   1.357       .  S
C2555      C2560   1.404       .  A
C2555      C2564   1.403       .  A
C2560      C2561   1.393       .  A
C2560      F2565   1.358       .  S
C2561      C2562   1.406       .  A
C2561      H2566   1.083       .  S
C2562      C2563   1.414       .  A
C2563      C2564   1.402       .  A
C2563      F2567   1.357       .  S
C2564      H2568   1.084       .  S
C2569      C2570   1.401       .  A
C2569      C2574   1.397       .  A
C2569      H2579   1.084       .  S
C2570      C2575   1.472       .  S
C2570      C2571   1.403       .  A
C2571      C2572   1.393       .  A
C2571      F2576   1.358       .  S
C2572      C2573   1.405       .  A
C2572      H2577   1.083       .  S
C2573      C2574   1.411       .  A
C2574      F2578   1.357       .  S
C2575      C2580   1.404       .  A
C2575      C2584   1.401       .  A
C2580      C2581   1.396       .  A
C2580      F2585   1.357       .  S
C2581      C2582   1.405       .  A
C2581      H2586   1.083       .  S
C2582      C2583   1.408       .  A
C2583      C2584   1.393       .  A
C2584      H2588   1.083       .  S
C2589      C2590   1.404       .  A
C2589      C2594   1.399       .  A
C2589      H2599   1.083       .  S
C2590      C2595   1.481       .  S
C2590      C2591   1.407       .  A
C2591      C2592   1.395       .  A
C2591      F2596   1.358       .  S
C2592      C2593   1.404       .  A
C2592      H2597   1.083       .  S
C2593      C2594   1.409       .  A
C2594      F2598   1.358       .  S
C2595      C2600   1.407       .  A
C2595      C2604   1.401       .  A
C2600      C2601   1.400       .  A
C2600      F2605   1.357       .  S
C2601      C2602   1.406       .  A
C2601      H2606   1.083       .  S
C2602      C2603   1.412       .  A
C2603      C2604   1.393       .  A
C2603      F2607   1.357       .  S
C2604      H2608   1.084       .  S
