geometry optimzed in LAMMPS
_audit_creation_date              2020-11-30 
_audit_creation_method            'lammps2cif' 
_symmetry_space_group_name_H-M    'P1' 
_symmetry_Int_Tables_number       1 
_symmetry_cell_setting            triclinic 
loop_ 
_symmetry_equiv_pos_as_xyz 
  x,y,z 
_cell_length_a                    32.02741744 
_cell_length_b                    31.825280882982394 
_cell_length_c                    29.552826585175136 
_cell_angle_alpha                 89.43698586778203 
_cell_angle_beta                  89.56085235212805 
_cell_angle_gamma                 120.3926650740769 
loop_ 
_atom_site_label 
_atom_site_type_symbol 
_atom_site_fract_x 
_atom_site_fract_y 
_atom_site_fract_z 
_atom_site_charge 
Fe1        Fe  0.21717964  0.41692829  0.99608561     1.65800
Fe2        Fe  0.10613148  0.31573416  0.00706000     1.73200
Fe3        Fe  0.20483495  0.30460321  0.00137756     1.54400
O4          O  0.23719550  0.33140034  0.93968831    -0.81400
O5          O  0.10032474  0.26178932  0.05081659    -0.79700
O6          O  0.25682480  0.40972218  0.94241377    -0.83900
O7          O  0.26474328  0.41773507  0.04337770    -0.78800
O8          O  0.14737434  0.24861355  0.96801891    -0.80600
O9          O  0.11073868  0.35546946  0.06225814    -0.83300
C10         C  0.28220427  0.39060537  0.05210810     0.97400
C11         C  0.25848087  0.37450893  0.92328696     1.04900
O12         O  0.17636991  0.34659204  0.00097754    -1.12300
O13         O  0.10088168  0.36531145  0.96705150    -0.74700
O14         O  0.17434296  0.42607285  0.94889893    -0.78200
O15         O  0.26793591  0.35077010  0.03276382    -0.78900
C16         C  0.12862415  0.40417653  0.94544303     0.96400
O17         O  0.17909764  0.42706628  0.04949740    -0.76900
O18         O  0.09753266  0.27532985  0.95025343    -0.82100
C19         C  0.13101200  0.25977709  0.07638882     0.99000
C20         C  0.11471559  0.24778399  0.94348649     1.04900
O21         O  0.17521057  0.27936710  0.06510955    -0.77700
C22         C  0.13969407  0.39959179  0.07171986     1.03200
Fe23       Fe  0.40757980  0.19437746  0.99141512     1.65800
Fe24       Fe  0.30910962  0.20720484  0.99428255     1.73200
Fe25       Fe  0.29325788  0.09325584  0.00860033     1.54400
O26         O  0.32929969  0.07510562  0.96214694    -0.81400
O27         O  0.25529164  0.16758117  0.04074888    -0.79700
O28         O  0.40222325  0.14045069  0.94924620    -0.83900
O29         O  0.41057880  0.15774269  0.04775286    -0.78800
O30         O  0.24531219  0.08853079  0.95876148    -0.80600
O31         O  0.35287986  0.24884794  0.04769281    -0.83300
C32         C  0.38047423  0.11957117  0.06942680     0.97400
C33         C  0.36988452  0.09670768  0.94172924     1.04900
O34         O  0.33644010  0.16445615  0.99760582    -1.12300
O35         O  0.35611386  0.25409975  0.94332634    -0.74700
O36         O  0.41213441  0.23394998  0.93207716    -0.78200
O37         O  0.33643117  0.09280366  0.05887702    -0.78900
C38         C  0.39053083  0.25636851  0.91966501     0.96400
O39         O  0.42245249  0.25097822  0.03602608    -0.76900
O40         O  0.26189249  0.16511414  0.94440887    -0.82100
C41         C  0.23499412  0.12746446  0.06219489     0.99000
C42         C  0.23782198  0.11926695  0.93767610     1.04900
O43         O  0.24901005  0.09714682  0.05752895    -0.77700
C44         C  0.39588501  0.26177236  0.05978069     1.03200
C45         C  0.45420812  0.49737296  0.25012981     0.02500
C46         C  0.00213603  0.04421279  0.24981335     0.02500
C47         C  0.04714583  0.04199644  0.25075145     0.02500
C48         C  0.04448099  0.99386763  0.25645054     0.02500
C49         C  0.49820851  0.44801705  0.25387323     0.02500
C50         C  0.45307255  0.44987442  0.24985928     0.02500
N51         N  0.40793577  0.99913767  0.24795880    -0.03200
C52         C  0.39647956  0.02554893  0.21737757    -0.00600
C53         C  0.35141095  0.01978255  0.22605493    -0.23500
C54         C  0.33145137  0.48798856  0.26232149    -0.23700
C55         C  0.36415550  0.47400336  0.27477409    -0.00700
H56         H  0.33394844  0.03625379  0.20778603     0.13000
H57         H  0.29680704  0.47743710  0.27814267     0.13100
N58         N  0.09044960  0.49210789  0.26143593    -0.03200
C59         C  0.11529973  0.49508635  0.22202890    -0.00600
C60         C  0.16206437  0.53379881  0.22271907    -0.23500
C61         C  0.16966779  0.04979511  0.26617844    -0.23700
C62         C  0.12697740  0.02235776  0.29055591    -0.00700
H63         H  0.19014074  0.54316600  0.19735084     0.13000
H64         H  0.20534247  0.07363302  0.27951858     0.13100
N65         N  0.09565925  0.08792835  0.24491076    -0.03200
C66         C  0.12748038  0.10043241  0.20788710    -0.00600
C67         C  0.17390491  0.13644064  0.21911297    -0.23500
C68         C  0.17163307  0.15169189  0.26024264    -0.23700
C69         C  0.12569704  0.12157572  0.27728848    -0.00700
H70         H  0.20551204  0.15439772  0.19704421     0.13000
H71         H  0.20063254  0.18410757  0.27513838     0.13100
N72         N  0.50482845  0.09304992  0.25252595    -0.03200
C73         C  0.48091257  0.10615825  0.28403455    -0.00600
C74         C  0.48929022  0.15264032  0.27684258    -0.23500
C75         C  0.01701563  0.17046876  0.23998159    -0.23700
C76         C  0.02888004  0.13645638  0.22604835    -0.00700
H77         H  0.47500008  0.17145589  0.29620026     0.13000
H78         H  0.02949835  0.20650705  0.22576925     0.13100
N79         N  0.40566121  0.40367720  0.24520354    -0.03200
C80         C  0.37374549  0.39021118  0.20941290    -0.00600
C81         C  0.32985406  0.34920513  0.21930682    -0.23500
C82         C  0.33223429  0.33544457  0.26141052    -0.23700
C83         C  0.37852637  0.36622176  0.27657112    -0.00700
H84         H  0.29831425  0.33184377  0.19797276     0.13000
H85         H  0.30363901  0.30324400  0.27843238     0.13100
N86         N  0.99605353  0.39890553  0.25966283    -0.03200
C87         C  0.00471634  0.38200645  0.30024950    -0.00600
C88         C  0.98344760  0.33192272  0.30128309    -0.23500
C89         C  0.46419235  0.31635329  0.26040596    -0.23700
C90         C  0.47142252  0.35596986  0.23504422    -0.00700
H91         H  0.98781880  0.30986674  0.32689302     0.13000
H92         H  0.44790954  0.27895886  0.24946542     0.13100
Fe93       Fe  0.31384182  0.08628116  0.51627093     1.65800
Fe94       Fe  0.28457662  0.17635290  0.50651303     1.73200
Fe95       Fe  0.40315983  0.20491019  0.49630935     1.54400
O96         O  0.42673926  0.17721941  0.54725144    -0.81400
O97         O  0.31692202  0.22859253  0.45410890    -0.79700
O98         O  0.37034851  0.10012153  0.56086638    -0.83900
O99         O  0.35348498  0.08557976  0.46104719    -0.78800
O100        O  0.40057201  0.25104696  0.54386762    -0.80600
O101        O  0.24063092  0.12293183  0.45964898    -0.83300
C102        C  0.38978638  0.11757240  0.43846141     0.97400
C103        C  0.41136069  0.13737319  0.56889941     1.04900
O104        O  0.33380922  0.15583257  0.50602520    -1.12300
O105        O  0.24368655  0.12901740  0.55830829    -0.74700
O106        O  0.27110488  0.07855725  0.57176112    -0.78200
O107        O  0.41183834  0.16279381  0.44761786    -0.78900
C108        C  0.24279927  0.09448109  0.58072309     0.96400
O109        O  0.25406331  0.06177714  0.47401425    -0.76900
O110        O  0.32299359  0.22937759  0.55506508    -0.82100
C111        C  0.35817126  0.25058774  0.43440830     0.99000
C112        C  0.36785373  0.25530766  0.56426650     1.04900
O113        O  0.39182633  0.24247812  0.44481426    -0.77700
C114        C  0.23092782  0.07907728  0.45368176     1.03200
Fe115      Fe  0.20451578  0.29708680  0.50597406     1.65800
Fe116      Fe  0.19582059  0.39903638  0.50105463     1.73200
Fe117      Fe  0.09538929  0.28756380  0.49030909     1.54400
O118        O  0.10230568  0.24689539  0.44065180    -0.81400
O119        O  0.13718374  0.40070551  0.53287931    -0.79700
O120        O  0.16634786  0.24223235  0.46034755    -0.83900
O121        O  0.16149953  0.25267116  0.55829880    -0.78800
O122        O  0.09783211  0.33519107  0.44010268    -0.80600
O123        O  0.22223699  0.39947702  0.56366893    -0.83300
C124        C  0.11580218  0.22954086  0.56452183     0.97400
C125        C  0.13003104  0.22980357  0.43535435     1.04900
O126        O  0.16482060  0.32755706  0.49934586    -1.12300
O127        O  0.25949399  0.41107192  0.46785119    -0.74700
O128        O  0.24788742  0.33779288  0.45218902    -0.78200
O129        O  0.08688188  0.23645611  0.54034089    -0.78900
C130        C  0.26825417  0.38317763  0.44403042     0.96400
O131        O  0.24969831  0.34834613  0.55279934    -0.76900
O132        O  0.17113849  0.40244830  0.43881595    -0.82100
C133        C  0.09549563  0.36798136  0.54731797     0.99000
C134        C  0.12938058  0.37642111  0.42312501     1.04900
O135        O  0.07934369  0.32355612  0.53849136    -0.77700
C136        C  0.24898268  0.38245000  0.57433965     1.03200
C137        C  0.45310788  0.51139630  0.74525922     0.02500
C138        C  0.45044742  0.46402383  0.73904353     0.02500
C139        C  0.49502620  0.46195724  0.74113830     0.02500
C140        C  0.04174948  0.50367177  0.75363533     0.02500
C141        C  0.04599079  0.05192575  0.75595664     0.02500
C142        C  0.50194847  0.05633462  0.75365579     0.02500
N143        N  0.08327862  0.49620900  0.76578894    -0.03200
C144        C  0.09095723  0.47745933  0.80628813    -0.00600
C145        C  0.13205873  0.47401865  0.80366364    -0.23500
C146        C  0.15116120  0.98883153  0.76300053    -0.23700
C147        C  0.12206347  0.00100697  0.73892316    -0.00700
H148        H  0.14719776  0.46165343  0.82959842     0.13000
H149        H  0.18475574  0.99151195  0.75191317     0.13100
N150        N  0.40802418  0.01425413  0.74015712    -0.03200
C151        C  0.39900537  0.04704877  0.76209077    -0.00600
C152        C  0.38674180  0.07220129  0.73097986    -0.23500
C153        C  0.37952589  0.55014042  0.69202676    -0.23700
C154        C  0.38855850  0.51285302  0.69854441    -0.00700
H155        H  0.37950963  0.10146119  0.73660803     0.13000
H156        H  0.36221237  0.55613756  0.66329444     0.13100
N157        N  0.50645278  0.10394408  0.76672621    -0.03200
C158        C  0.49074599  0.13163239  0.74321161    -0.00600
C159        C  0.47386204  0.15241234  0.77423531    -0.23500
C160        C  0.98297042  0.14152903  0.81681349    -0.23700
C161        C  0.00641856  0.11567446  0.81220622    -0.00700
H162        H  0.45419786  0.17110158  0.76796282     0.13000
H163        H  0.97809852  0.15712681  0.84744367     0.13100
N164        N  0.09425403  0.09825792  0.75732449    -0.03200
C165        C  0.13537314  0.11165894  0.78321538    -0.00600
C166        C  0.17306622  0.15730389  0.77153578    -0.23500
C167        C  0.15838991  0.17376388  0.73730180    -0.23700
C168        C  0.11067965  0.13956761  0.72946249    -0.00700
H169        H  0.20833557  0.17708972  0.78694840     0.13000
H170        H  0.18104752  0.20765371  0.71899022     0.13100
N171        N  0.99261684  0.41482924  0.73024534    -0.03200
C172        C  0.02645640  0.41380067  0.70094769    -0.00600
C173        C  0.04418096  0.38641747  0.72057064    -0.23500
C174        C  0.51730631  0.36506783  0.75856741    -0.23700
C175        C  0.48549310  0.38187830  0.76485623    -0.00700
H176        H  0.06356850  0.37141647  0.70347759     0.13000
H177        H  0.51780260  0.33571853  0.77696751     0.13100
N178        N  0.40306246  0.41810574  0.72992726    -0.03200
C179        C  0.35795174  0.40052713  0.75115778    -0.00600
C180        C  0.32041318  0.37174432  0.72322642    -0.23500
C181        C  0.34001919  0.36969851  0.68372925    -0.23700
C182        C  0.38983675  0.39508296  0.68836522    -0.00700
H183        H  0.28217349  0.35163409  0.73191901     0.13000
H184        H  0.31972771  0.34546156  0.65653695     0.13100
C185        C  0.08496248  0.12659110  0.64911008    -0.20100
C186        C  0.08953056  0.15116902  0.68981766    -0.06600
C187        C  0.09464020  0.19863088  0.68685042     0.14200
C188        C  0.09558110  0.21928776  0.64465129    -0.20100
C189        C  0.09681427  0.19720691  0.60482148    -0.06600
C190        C  0.09014504  0.14980679  0.60660535     0.14200
C191        C  0.09124050  0.12512581  0.56382243    -0.23500
H192        H  0.08256830  0.09147812  0.65043179     0.15500
H193        H  0.10101184  0.25580093  0.64267348     0.15500
C194        C  0.10350947  0.23073335  0.72733524    -0.23400
H195        H  0.08613949  0.08850520  0.57089754     0.05800
H196        H  0.12659683  0.14736514  0.54602516     0.09000
H197        H  0.06196591  0.12096067  0.54116614     0.09000
H198        H  0.13882918  0.24227666  0.74284379     0.09000
H199        H  0.07442418  0.21183577  0.75277420     0.09000
H200        H  0.10441355  0.26507915  0.71802240     0.05700
C201        C  0.07717162  0.42990408  0.58327013    -0.20100
C202        C  0.06492778  0.38103678  0.57693283    -0.06600
C203        C  0.02296191  0.34492900  0.60026188     0.14200
C204        C  0.00332143  0.35818575  0.63617622    -0.20100
C205        C  0.02294771  0.40685782  0.64992216    -0.06600
C206        C  0.05537203  0.44285908  0.61846851     0.14200
C207        C  0.06357002  0.49365099  0.61847410    -0.23500
H208        H  0.10490326  0.45832071  0.56187369     0.15500
H209        H  0.97795708  0.32944623  0.65871659     0.15500
C210        C  0.99921689  0.29169884  0.58981753    -0.23400
H211        H  0.10199294  0.52021521  0.61201481     0.05800
H212        H  0.05028015  0.50143835  0.65029449     0.09000
H213        H  0.04525893  0.49938524  0.58954027     0.09000
H214        H  0.02249218  0.27682500  0.60015756     0.09000
H215        H  0.99144551  0.28613688  0.55315522     0.09000
H216        H  0.96411136  0.27118126  0.60794180     0.05700
C217        C  0.26869612  0.41374751  0.65187276    -0.20100
C218        C  0.28456456  0.40771928  0.60973152    -0.06600
C219        C  0.33399062  0.43548771  0.59819927     0.14200
C220        C  0.36748779  0.46399301  0.63091963    -0.20100
C221        C  0.35255329  0.46968074  0.67380039    -0.06600
C222        C  0.30144944  0.44702463  0.68271257     0.14200
C223        C  0.27891294  0.45965089  0.72130241    -0.23500
H224        H  0.23011035  0.39578572  0.65902807     0.15500
H225        H  0.40530079  0.48535401  0.62199281     0.15500
C226        C  0.34975378  0.44050478  0.54963197    -0.23400
H227        H  0.25642136  0.47387905  0.70761020     0.05800
H228        H  0.25582219  0.42671694  0.74248623     0.09000
H229        H  0.30484440  0.48878343  0.74280740     0.09000
H230        H  0.32720153  0.45072475  0.52946480     0.09000
H231        H  0.34511384  0.40547093  0.53759068     0.09000
H232        H  0.38764224  0.47010543  0.54386545     0.05700
C233        C  0.47936056  0.10559565  0.65860693    -0.20100
C234        C  0.48553614  0.13939828  0.69259523    -0.06600
C235        C  0.47853529  0.17875187  0.67846269     0.14200
C236        C  0.45255786  0.17442094  0.63948677    -0.20100
C237        C  0.44051551  0.13770596  0.60855466    -0.06600
C238        C  0.45844572  0.10572751  0.61599782     0.14200
C239        C  0.45551544  0.07252930  0.57900407    -0.23500
H240        H  0.48736310  0.07711423  0.66605751     0.15500
H241        H  0.44134681  0.20051040  0.63313301     0.15500
C242        C  0.99719656  0.22634539  0.70309426    -0.23400
H243        H  0.47225989  0.05070990  0.58903904     0.05800
H244        H  0.47516300  0.09455533  0.54851997     0.09000
H245        H  0.41713147  0.04801659  0.57014864     0.09000
H246        H  0.01976980  0.23104078  0.73256839     0.09000
H247        H  0.96663689  0.23115703  0.71412960     0.09000
H248        H  0.02040712  0.25654629  0.67919312     0.05700
C249        C  0.15316144  0.06703550  0.67906424    -0.20100
C250        C  0.14024809  0.01924006  0.69145675    -0.06600
C251        C  0.16011612  0.99616909  0.66399810     0.14200
C252        C  0.19090336  0.02130639  0.62735703    -0.20100
C253        C  0.20609470  0.06996342  0.61766062    -0.06600
C254        C  0.18585484  0.09289348  0.64308598     0.14200
C255        C  0.19968444  0.14492937  0.63344816    -0.23500
H256        H  0.14007713  0.08530990  0.69915890     0.15500
H257        H  0.20491319  0.00281788  0.60702906     0.15500
C258        C  0.15326605  0.44705309  0.67219578    -0.23400
H259        H  0.18252090  0.15800894  0.65748065     0.05800
H260        H  0.18783688  0.14831107  0.59915071     0.09000
H261        H  0.23935516  0.16905259  0.63601102     0.09000
H262        H  0.13563118  0.42983475  0.70432291     0.09000
H263        H  0.18876437  0.44923813  0.67250230     0.09000
H264        H  0.13265465  0.42241955  0.64448465     0.05700
C265        C  0.40600173  0.34222907  0.58482112    -0.20100
C266        C  0.38351879  0.29355705  0.59913942    -0.06600
C267        C  0.37929128  0.28304325  0.64606449     0.14200
C268        C  0.39390494  0.32121252  0.67723341    -0.20100
C269        C  0.41103903  0.36987430  0.66290308    -0.06600
C270        C  0.42037365  0.38007006  0.61598283     0.14200
C271        C  0.44722505  0.43087290  0.59778221    -0.23500
H272        H  0.41224921  0.35090866  0.54891859     0.15500
H273        H  0.38540721  0.31204969  0.71266121     0.15500
C274        C  0.35836817  0.23158138  0.66335890    -0.23400
H275        H  0.47760192  0.43492764  0.57652368     0.05800
H276        H  0.46071942  0.45814197  0.62512641     0.09000
H277        H  0.42413002  0.43679239  0.57488976     0.09000
H278        H  0.38039807  0.21624756  0.65066259     0.09000
H279        H  0.32086296  0.20893056  0.65132523     0.09000
H280        H  0.35767888  0.22960956  0.70093307     0.05700
C281        C  0.08749256  0.40026632  0.31228799    -0.20100
C282        C  0.04847399  0.40485045  0.32917569    -0.06600
C283        C  0.04451311  0.40609778  0.37744489     0.14200
C284        C  0.08274904  0.41323497  0.40432241    -0.20100
C285        C  0.11358612  0.39806572  0.38853043    -0.06600
C286        C  0.11742686  0.39255705  0.34193728     0.14200
C287        C  0.15122882  0.37661160  0.32442256    -0.23500
H288        H  0.08879492  0.39373448  0.27655700     0.15500
H289        H  0.08000187  0.41657140  0.44068065     0.15500
C290        C  0.49603736  0.38089098  0.40326299    -0.23400
H291        H  0.14483986  0.36674206  0.28830160     0.05800
H292        H  0.14575005  0.34397169  0.34327233     0.09000
H293        H  0.18909542  0.40642606  0.32908079     0.09000
H294        H  0.49583149  0.35631418  0.43044880     0.09000
H295        H  0.46753414  0.35597638  0.38089174     0.09000
H296        H  0.48914636  0.40783994  0.42001618     0.05700
C297        C  0.38265662  0.33354075  0.39857447    -0.20100
C298        C  0.36644748  0.28318987  0.39444720    -0.06600
C299        C  0.36393568  0.26471011  0.35103711     0.14200
C300        C  0.37559642  0.29530433  0.31319957    -0.20100
C301        C  0.39137848  0.34548969  0.31619703    -0.06600
C302        C  0.39724222  0.36503129  0.35957483     0.14200
C303        C  0.42991327  0.41896278  0.36386644    -0.23500
H304        H  0.38841146  0.34899239  0.43202500     0.15500
H305        H  0.36913833  0.27896968  0.28009879     0.15500
C306        C  0.34771908  0.21190175  0.34434395    -0.23400
H307        H  0.42744575  0.43214106  0.39783263     0.05800
H308        H  0.42410746  0.43862417  0.33648757     0.09000
H309        H  0.46748685  0.42888750  0.35635610     0.09000
H310        H  0.31096989  0.18853644  0.35929667     0.09000
H311        H  0.37369111  0.20372219  0.36116053     0.09000
H312        H  0.34645124  0.20295346  0.30796198     0.05700
C313        C  0.40380732  0.08145091  0.31994738    -0.20100
C314        C  0.44717909  0.08041682  0.32268875    -0.06600
C315        C  0.46584225  0.08324217  0.36644382     0.14200
C316        C  0.44575705  0.09385858  0.40410694    -0.20100
C317        C  0.40651006  0.10131213  0.39923658    -0.06600
C318        C  0.38460780  0.09380524  0.35659498     0.14200
C319        C  0.34477740  0.10417512  0.34631576    -0.23500
H320        H  0.39080324  0.08369586  0.28700530     0.15500
H321        H  0.46136614  0.09710316  0.43723604     0.15500
C322        C  0.00449147  0.07163076  0.37436700    -0.23400
H323        H  0.31349277  0.07124714  0.33210024     0.05800
H324        H  0.35784735  0.13321809  0.31989662     0.09000
H325        H  0.33279779  0.11623117  0.37625156     0.09000
H326        H  0.03508785  0.10153274  0.39238479     0.09000
H327        H  0.01683273  0.06490971  0.34174425     0.09000
H328        H  0.98944542  0.03797915  0.39557070     0.05700
C329        C  0.14574535  0.16937393  0.39832229    -0.20100
C330        C  0.12109492  0.19523140  0.39795086    -0.06600
C331        C  0.09514505  0.19315393  0.35876344     0.14200
C332        C  0.09295987  0.16364905  0.32275225    -0.20100
C333        C  0.11652424  0.13681560  0.32260547    -0.06600
C334        C  0.14777183  0.14471485  0.36004930     0.14200
C335        C  0.19295838  0.14127422  0.35631195    -0.23500
H336        H  0.16868618  0.17342384  0.42670760     0.15500
H337        H  0.07866610  0.16736386  0.29209597     0.15500
C338        C  0.07347755  0.22523396  0.35252760    -0.23400
H339        H  0.20481227  0.13622109  0.38980357     0.05800
H340        H  0.22342540  0.17620970  0.34311561     0.09000
H341        H  0.18801044  0.11149838  0.33449455     0.09000
H342        H  0.10122025  0.26357788  0.35871554     0.09000
H343        H  0.04214831  0.21339179  0.37602348     0.09000
H344        H  0.06126712  0.22471524  0.31758537     0.05700
C345        C  0.17513934  0.00542196  0.34788806    -0.20100
C346        C  0.13573141  0.01288714  0.33958770    -0.06600
C347        C  0.11958440  0.02825366  0.37709067     0.14200
C348        C  0.14904898  0.04704624  0.41599880    -0.20100
C349        C  0.19316570  0.04749048  0.41969107    -0.06600
C350        C  0.20207613  0.01998505  0.38794483     0.14200
C351        C  0.24080877  0.00703878  0.39516533    -0.23500
H352        H  0.18817692  0.99195585  0.32144488     0.15500
H353        H  0.13896181  0.06389230  0.44226619     0.15500
C354        C  0.07271263  0.02709692  0.37505174    -0.23400
H355        H  0.24374926  0.98625715  0.36654952     0.05800
H356        H  0.23265785  0.98468937  0.42640257     0.09000
H357        H  0.27622553  0.03997157  0.39992418     0.09000
H358        H  0.04255615  0.98918885  0.37346051     0.09000
H359        H  0.07227971  0.04591340  0.34393148     0.09000
H360        H  0.06720987  0.04431354  0.40519461     0.05700
C361        C  0.27768662  0.37964735  0.36187507    -0.20100
C362        C  0.29865598  0.40271999  0.40219064    -0.06600
C363        C  0.34463782  0.44518545  0.40008472     0.14200
C364        C  0.36765812  0.46378132  0.35784987    -0.20100
C365        C  0.34735730  0.44173277  0.31664954    -0.06600
C366        C  0.29936734  0.39953696  0.31965966     0.14200
C367        C  0.26560970  0.37744404  0.28039064    -0.23500
H368        H  0.24142027  0.34799946  0.36307222     0.15500
H369        H  0.40268985  0.49543668  0.35707691     0.15500
C370        C  0.37047603  0.47031499  0.44213472    -0.23400
H371        H  0.28285718  0.39204506  0.24765481     0.05800
H372        H  0.23531290  0.38458295  0.28358164     0.09000
H373        H  0.24995200  0.33736642  0.28022205     0.09000
H374        H  0.37445665  0.44389129  0.46358464     0.09000
H375        H  0.35004494  0.48498968  0.45979563     0.09000
H376        H  0.40740641  0.50107122  0.43482599     0.05700
C377        C  0.39447569  0.04686162  0.89395271    -0.20100
C378        C  0.37327498  0.07558390  0.89898665    -0.06600
C379        C  0.35156878  0.08344972  0.86190134     0.14200
C380        C  0.35576313  0.06751412  0.81984399    -0.20100
C381        C  0.38664824  0.04866310  0.81150483    -0.06600
C382        C  0.40313715  0.03462739  0.85019569     0.14200
C383        C  0.42847049  0.00637265  0.84691875    -0.23500
H384        H  0.40375223  0.03401095  0.92398268     0.15500
H385        H  0.33390836  0.07007813  0.79355705     0.15500
C386        C  0.32102866  0.10618494  0.86797465    -0.23400
H387        H  0.42759868  0.98934686  0.88009213     0.05800
H388        H  0.46583633  0.02884282  0.83477840     0.09000
H389        H  0.41190626  0.97783138  0.82233343     0.09000
H390        H  0.34179358  0.14190983  0.88436452     0.09000
H391        H  0.29213114  0.08247139  0.89203577     0.09000
H392        H  0.30581209  0.11019857  0.83572502     0.05700
C393        C  0.39503390  0.05793719  0.10040850    -0.20100
C394        C  0.39789544  0.10235636  0.10636126    -0.06600
C395        C  0.41697667  0.12812403  0.14630188     0.14200
C396        C  0.42657216  0.10489328  0.18190794    -0.20100
C397        C  0.42202342  0.05833523  0.17769275    -0.06600
C398        C  0.41147068  0.03858875  0.13343671     0.14200
C399        C  0.43077468  0.00849041  0.11466699    -0.23500
H400        H  0.38453716  0.04063101  0.06766102     0.15500
H401        H  0.42802858  0.11900169  0.21503420     0.15500
C402        C  0.42256365  0.17757762  0.15302206    -0.23400
H403        H  0.45831030  0.02785132  0.08767171     0.05800
H404        H  0.40154198  0.47944694  0.09637893     0.09000
H405        H  0.44683118  0.99662673  0.14134829     0.09000
H406        H  0.38707203  0.17542605  0.14918698     0.09000
H407        H  0.44858434  0.20369433  0.12749214     0.09000
H408        H  0.43664753  0.19197430  0.18709944     0.05700
C409        C  0.20394708  0.07862890  0.86493304    -0.20100
C410        C  0.19981531  0.10163572  0.90306476    -0.06600
C411        C  0.16362075  0.11414917  0.90380805     0.14200
C412        C  0.13423181  0.10424010  0.86567246    -0.20100
C413        C  0.14512310  0.09072481  0.82406215    -0.06600
C414        C  0.18546901  0.08324173  0.82395886     0.14200
C415        C  0.21919847  0.09415678  0.78379102    -0.23500
H416        H  0.22741072  0.06410096  0.86432004     0.15500
H417        H  0.10594751  0.11202857  0.86754053     0.15500
C418        C  0.15522467  0.13676446  0.94494394    -0.23400
H419        H  0.23250566  0.06811003  0.78228101     0.05800
H420        H  0.25156091  0.13091296  0.78768063     0.09000
H421        H  0.20259700  0.09404799  0.75143444     0.09000
H422        H  0.18707274  0.17335350  0.95068632     0.09000
H423        H  0.14878935  0.11322405  0.97524489     0.09000
H424        H  0.12339173  0.14128893  0.94091747     0.05700
C425        C  0.41935673  0.33653936  0.87944478    -0.20100
C426        C  0.40652738  0.28758195  0.87693795    -0.06600
C427        C  0.40702678  0.26964805  0.83333899     0.14200
C428        C  0.42360911  0.30130537  0.79520457    -0.20100
C429        C  0.44338569  0.35223006  0.79823170    -0.06600
C430        C  0.43757118  0.36869723  0.84143177     0.14200
C431        C  0.95015799  0.41879852  0.84955735    -0.23500
H432        H  0.41671736  0.35050885  0.91202654     0.15500
H433        H  0.42617798  0.28668258  0.76298836     0.15500
C434        C  0.38856039  0.21679523  0.82590395    -0.23400
H435        H  0.91638593  0.41745152  0.86002773     0.05800
H436        H  0.96683422  0.44340708  0.82053321     0.09000
H437        H  0.97505821  0.43312524  0.87837335     0.09000
H438        H  0.34934693  0.19699275  0.83410341     0.09000
H439        H  0.40869564  0.20426985  0.84716473     0.09000
H440        H  0.39274683  0.20897120  0.79012176     0.05700
C441        C  0.16127611  0.06781270  0.10856384    -0.20100
C442        C  0.19283421  0.11586671  0.09253356    -0.06600
C443        C  0.18037815  0.15144188  0.10299188     0.14200
C444        C  0.14327386  0.13976717  0.13433027    -0.20100
C445        C  0.11872889  0.09456678  0.15756861    -0.06600
C446        C  0.11884619  0.05672311  0.13363359     0.14200
C447        C  0.07355064  0.02645161  0.10754451    -0.23500
H448        H  0.16449095  0.03822070  0.09453660     0.15500
H449        H  0.14603902  0.17053417  0.15062483     0.15500
C450        C  0.20871274  0.20354459  0.08616305    -0.23400
H451        H  0.07173563  0.04826126  0.07896182     0.05800
H452        H  0.04077207  0.01237794  0.12957829     0.09000
H453        H  0.07455109  0.99654026  0.09091949     0.09000
H454        H  0.20367238  0.20551949  0.04922787     0.09000
H455        H  0.24724870  0.21927428  0.09392174     0.09000
H456        H  0.19772690  0.22699383  0.10352518     0.05700
C457        C  0.46422014  0.30539121  0.11575981    -0.20100
C458        C  0.41583154  0.28900195  0.10381621    -0.06600
C459        C  0.38646698  0.29299702  0.13775588     0.14200
C460        C  0.40753093  0.31873571  0.17775082    -0.20100
C461        C  0.45745448  0.34336096  0.18616052    -0.06600
C462        C  0.48425233  0.32957674  0.15705394     0.14200
C463        C  0.52701556  0.32669815  0.17441921    -0.23500
H464        H  0.48567452  0.29574482  0.09446582     0.15500
H465        H  0.38387302  0.31452082  0.20523798     0.15500
C466        C  0.33245387  0.26815014  0.13389797    -0.23400
H467        H  0.05168157  0.32982650  0.14733305     0.05800
H468        H  0.51379703  0.29004710  0.18977533     0.09000
H469        H  0.04673917  0.35344733  0.20100407     0.09000
H470        H  0.31743491  0.22857181  0.12874380     0.09000
H471        H  0.32330200  0.28485566  0.10540819     0.09000
H472        H  0.31484944  0.27178178  0.16485424     0.05700
C473        C  0.05334247  0.16607797  0.92279827    -0.20100
C474        C  0.09276890  0.21004060  0.90915288    -0.06600
C475        C  0.11331973  0.21422309  0.86586061     0.14200
C476        C  0.08889738  0.17603595  0.83499714    -0.20100
C477        C  0.04584778  0.13247315  0.84674461    -0.06600
C478        C  0.03356245  0.12624872  0.89410926     0.14200
C479        C  0.50941092  0.07919207  0.91903557    -0.23500
H480        H  0.04128076  0.16122055  0.95792075     0.15500
H481        H  0.10219132  0.18120839  0.80109172     0.15500
C482        C  0.16004138  0.25914996  0.85206312    -0.23400
H483        H  0.53583095  0.07956068  0.94340320     0.05800
H484        H  0.50022842  0.04874680  0.89717826     0.09000
H485        H  0.47827837  0.07424083  0.93945625     0.09000
H486        H  0.18922173  0.26359669  0.87500991     0.09000
H487        H  0.15598502  0.29172953  0.85408728     0.09000
H488        H  0.17128279  0.25669738  0.81705247     0.05700
C489        C  0.10796536  0.20587316  0.19729494    -0.20100
C490        C  0.06796783  0.15786428  0.18989405    -0.06600
C491        C  0.05498079  0.14676291  0.14456735     0.14200
C492        C  0.07529307  0.18115685  0.10957304    -0.24100
C493        C  0.11254248  0.22787314  0.11703879    -0.06600
C494        C  0.13036471  0.24079592  0.16145791     0.14200
C495        C  0.17130220  0.29121698  0.17126176    -0.23500
H496        H  0.11916147  0.21744058  0.23158051     0.15500
H497        H  0.06286510  0.17038648  0.07520084     0.15500
C498        C  0.52107095  0.09798343  0.13091725    -0.23400
H499        H  0.18003373  0.29568492  0.20783241     0.05800
H500        H  0.16120989  0.31855083  0.16104530     0.09000
H501        H  0.20432766  0.29843494  0.15216638     0.09000
H502        H  0.50870604  0.07187640  0.15975851     0.09000
H503        H  0.53798431  0.08660192  0.10509001     0.09000
H504        H  0.49293389  0.10215043  0.11388018     0.05700
C505        C  0.11374502  0.47023201  0.91737905    -0.20100
C506        C  0.10531063  0.42251309  0.91436875    -0.06600
C507        C  0.06791350  0.39008102  0.88616866     0.14200
C508        C  0.04661364  0.40849798  0.85725166    -0.20100
C509        C  0.06396887  0.45857304  0.85068345    -0.06600
C510        C  0.08780652  0.48549375  0.88955162     0.14200
C511        C  0.06330973  0.00930927  0.91329833    -0.23500
H512        H  0.13460159  0.49259235  0.94534938     0.15500
H513        H  0.02186592  0.38322203  0.83554839     0.15500
C514        C  0.05135198  0.33630804  0.88430194    -0.23400
H515        H  0.03054796  0.98126131  0.93182566     0.05800
H516        H  0.05238385  0.02698076  0.88752790     0.09000
H517        H  0.08735296  0.03596399  0.93841190     0.09000
H518        H  0.03360413  0.31787518  0.91675147     0.09000
H519        H  0.02429025  0.31735822  0.85750200     0.09000
H520        H  0.08273521  0.33147764  0.87710013     0.05700
C521        C  0.32427731  0.42827071  0.81087352    -0.20100
C522        C  0.34284128  0.39816578  0.79952830    -0.06600
C523        C  0.32515548  0.35474980  0.82599667     0.14200
C524        C  0.30085259  0.34976969  0.86735309    -0.20100
C525        C  0.28675215  0.38333519  0.88033995    -0.06600
C526        C  0.29593270  0.42134033  0.84972354     0.14200
C527        C  0.27209862  0.45155927  0.85506093    -0.23500
H528        H  0.33104899  0.45686368  0.78794988     0.15500
H529        H  0.28991243  0.31740418  0.88799820     0.15500
C530        C  0.32297415  0.30957327  0.80811471    -0.23400
H531        H  0.27780966  0.47473111  0.82475336     0.05800
H532        H  0.28686366  0.47564295  0.88464217     0.09000
H533        H  0.23236146  0.42729236  0.85940361     0.09000
H534        H  0.34619558  0.31698721  0.77780668     0.09000
H535        H  0.28506597  0.28295706  0.79896855     0.09000
H536        H  0.33371073  0.29226157  0.83453688     0.05700
C537        C  0.07604535  0.43952221  0.15632134    -0.20100
C538        C  0.10832762  0.45385948  0.19260804    -0.06600
C539        C  0.14609129  0.44252998  0.19001206     0.14200
C540        C  0.15522394  0.42611536  0.14993563    -0.20100
C541        C  0.12749533  0.41838734  0.11200303    -0.06600
C542        C  0.08558617  0.42221466  0.11553593     0.14200
C543        C  0.05231700  0.40930896  0.07570004    -0.23500
H544        H  0.04505465  0.44432622  0.15895247     0.15500
H545        H  0.18427778  0.41879614  0.14861329     0.15500
C546        C  0.18075878  0.45121195  0.22751197    -0.23400
H547        H  0.02010433  0.41225474  0.08394528     0.05800
H548        H  0.03964165  0.37158350  0.06501017     0.09000
H549        H  0.07208601  0.43406396  0.04662374     0.09000
H550        H  0.18511716  0.41903635  0.23200882     0.09000
H551        H  0.16715373  0.45726871  0.25937249     0.09000
H552        H  0.21689202  0.48308917  0.21908504     0.05700
C553        C  0.33949233  0.42816092  0.16592978    -0.20100
C554        C  0.37452577  0.41437983  0.16628924    -0.06600
C555        C  0.38431716  0.39911106  0.12458709     0.14200
C556        C  0.35335863  0.39027949  0.08739789    -0.20100
C557        C  0.31694639  0.40290162  0.08923589    -0.06600
C558        C  0.31127432  0.42339225  0.12898266     0.14200
C559        C  0.27140289  0.43458771  0.13520949    -0.23500
H560        H  0.32893892  0.43611892  0.19692860     0.15500
H561        H  0.36035886  0.37765738  0.05587565     0.15500
C562        C  0.43422037  0.40802620  0.11461992    -0.23400
H563        H  0.26886785  0.44532592  0.17032788     0.05800
H564        H  0.23693912  0.40094785  0.12762524     0.09000
H565        H  0.27728483  0.46507967  0.11240389     0.09000
H566        H  0.43266880  0.37702034  0.09700979     0.09000
H567        H  0.45611239  0.41699419  0.14568915     0.09000
H568        H  0.45339495  0.43955170  0.09092637     0.05700
Fe569      Fe  0.21702723  0.91681546  0.99629352     1.65800
Fe570      Fe  0.10579440  0.81557163  0.00725572     1.73200
Fe571      Fe  0.20460809  0.80422136  0.00165339     1.54400
O572        O  0.23803703  0.83171605  0.94031432    -0.81400
O573        O  0.09965420  0.76191942  0.05150140    -0.79700
O574        O  0.25630830  0.90965496  0.94246335    -0.83900
O575        O  0.26517502  0.91769169  0.04291362    -0.78800
O576        O  0.14762415  0.74864802  0.96746568    -0.80600
O577        O  0.11051235  0.85572877  0.06208494    -0.83300
C578        C  0.28222346  0.89032996  0.05222096     0.97400
C579        C  0.25879110  0.87475551  0.92370207     1.04900
O580        O  0.17613488  0.84632609  0.00115064    -1.12300
O581        O  0.10063316  0.86493505  0.96684967    -0.74700
O582        O  0.17386953  0.92655001  0.94966409    -0.78200
O583        O  0.26717163  0.84984774  0.03392320    -0.78900
C584        C  0.12814429  0.90432007  0.94587227     0.96400
O585        O  0.17949116  0.92693190  0.05004869    -0.76900
O586        O  0.09671128  0.77444960  0.95090599    -0.82100
C587        C  0.13023315  0.75940822  0.07679070     0.99000
C588        C  0.11420575  0.74724400  0.94370564     1.04900
O589        O  0.17427387  0.77829088  0.06513958    -0.77700
C590        C  0.13981667  0.89963552  0.07189861     1.03200
Fe591      Fe  0.40705000  0.69349489  0.99163328     1.65800
Fe592      Fe  0.30890861  0.70700189  0.99357706     1.73200
Fe593      Fe  0.29242808  0.59282554  0.00886896     1.54400
O594        O  0.32875155  0.57403005  0.96328230    -0.81400
O595        O  0.25481631  0.66805784  0.04033115    -0.79700
O596        O  0.40149311  0.63940399  0.94971708    -0.83900
O597        O  0.40943106  0.65657943  0.04813067    -0.78800
O598        O  0.24513761  0.58808329  0.95840898    -0.80600
O599        O  0.35275110  0.74919086  0.04651834    -0.83300
C600        C  0.37907097  0.61883844  0.07021171     0.97400
C601        C  0.36922332  0.59553134  0.94266512     1.04900
O602        O  0.33592237  0.66396679  0.99756712    -1.12300
O603        O  0.35603233  0.75321063  0.94228694    -0.74700
O604        O  0.41242195  0.73338366  0.93209171    -0.78200
O605        O  0.33490536  0.59242729  0.05991704    -0.78900
C606        C  0.39083747  0.75567333  0.91912409     0.96400
O607        O  0.42192776  0.75014269  0.03606440    -0.76900
O608        O  0.26185897  0.66469613  0.94396976    -0.82100
C609        C  0.23403850  0.62776247  0.06158615     0.99000
C610        C  0.23784511  0.61889836  0.93723154     1.04900
O611        O  0.24768328  0.59715981  0.05687958    -0.77700
C612        C  0.39551670  0.76175618  0.05903483     1.03200
C613        C  0.45457325  0.99788743  0.24992598     0.02500
C614        C  0.00182598  0.54356168  0.25022299     0.02500
C615        C  0.04701600  0.54171594  0.25100772     0.02500
C616        C  0.04476209  0.49374441  0.25660743     0.02500
C617        C  0.49786848  0.94788062  0.25348658     0.02500
C618        C  0.45301184  0.95021677  0.24956189     0.02500
N619        N  0.40730642  0.49815641  0.24827776    -0.03200
C620        C  0.39542863  0.52441031  0.21791118    -0.00600
C621        C  0.35002095  0.51782838  0.22652988    -0.23500
C622        C  0.33260582  0.99018759  0.26201192    -0.23700
C623        C  0.36485240  0.97563622  0.27460857    -0.00700
H624        H  0.33221326  0.53403495  0.20841773     0.13000
H625        H  0.29809591  0.98016378  0.27783553     0.13100
N626        N  0.08993025  0.99175706  0.26151658    -0.03200
C627        C  0.11517424  0.99497644  0.22228641    -0.00600
C628        C  0.16208527  0.03333330  0.22361938    -0.23500
C629        C  0.17003028  0.55078194  0.26510197    -0.23700
C630        C  0.12769127  0.52329510  0.28998700    -0.00700
H631        H  0.19040839  0.04277858  0.19850448     0.13000
H632        H  0.20580969  0.57508154  0.27799275     0.13100
N633        N  0.09530604  0.58789738  0.24513697    -0.03200
C634        C  0.12705446  0.60084017  0.20799371    -0.00600
C635        C  0.17333365  0.63725714  0.21916576    -0.23500
C636        C  0.17092371  0.65238048  0.26030721    -0.23700
C637        C  0.12517203  0.62173592  0.27747642    -0.00700
H638        H  0.20489822  0.65551338  0.19707451     0.13000
H639        H  0.19975616  0.68488371  0.27526223     0.13100
N640        N  0.50388510  0.59262173  0.25256167    -0.03200
C641        C  0.47977980  0.60553317  0.28407433    -0.00600
C642        C  0.48793555  0.65193571  0.27688269    -0.23500
C643        C  0.01595566  0.66958554  0.24094615    -0.23700
C644        C  0.02815648  0.63587685  0.22685025    -0.00700
H645        H  0.47351773  0.67063125  0.29625052     0.13000
H646        H  0.02831277  0.70569143  0.22697296     0.13100
N647        N  0.40542297  0.90431316  0.24482414    -0.03200
C648        C  0.37385685  0.89123692  0.20884797    -0.00600
C649        C  0.32960031  0.85058880  0.21852887    -0.23500
C650        C  0.33145585  0.83672934  0.26072928    -0.23700
C651        C  0.37776951  0.86701407  0.27614498    -0.00700
H652        H  0.29821256  0.83357053  0.19698196     0.13000
H653        H  0.30245194  0.80475225  0.27765189     0.13100
N654        N  0.99526048  0.89926062  0.25982967    -0.03200
C655        C  0.00272959  0.88234695  0.30092902    -0.00600
C656        C  0.98052087  0.83216891  0.30229541    -0.23500
C657        C  0.46125547  0.81561362  0.25952117    -0.23700
C658        C  0.46941692  0.85563320  0.23427809    -0.00700
H659        H  0.98392309  0.80992536  0.32837461     0.13000
H660        H  0.44421200  0.77819249  0.24848638     0.13100
Fe661      Fe  0.31377321  0.58722319  0.51643277     1.65800
Fe662      Fe  0.28429795  0.67716073  0.50650182     1.73200
Fe663      Fe  0.40296478  0.70578360  0.49627827     1.54400
O664        O  0.42705416  0.67748768  0.54654869    -0.81400
O665        O  0.31603418  0.72879726  0.45365725    -0.79700
O666        O  0.36992634  0.60097737  0.56121732    -0.83900
O667        O  0.35364108  0.58663060  0.46123414    -0.78800
O668        O  0.40044758  0.75102350  0.54480180    -0.80600
O669        O  0.24017098  0.62333807  0.46009845    -0.83300
C670        C  0.38923770  0.61867834  0.43790078     0.97400
C671        C  0.41127479  0.63787370  0.56875182     1.04900
O672        O  0.33362351  0.65672820  0.50605913    -1.12300
O673        O  0.24392023  0.63045514  0.55882211    -0.74700
O674        O  0.27098979  0.57963277  0.57184472    -0.78200
O675        O  0.41092808  0.66403671  0.44657696    -0.78900
C676        C  0.24297006  0.59582879  0.58111009     0.96400
O677        O  0.25417397  0.56251147  0.47413188    -0.76900
O678        O  0.32299394  0.73066636  0.55446618    -0.82100
C679        C  0.35761603  0.75184418  0.43469681     0.99000
C680        C  0.36769055  0.75579316  0.56448782     1.04900
O681        O  0.39168607  0.74454862  0.44566102    -0.77700
C682        C  0.23089111  0.57966978  0.45390672     1.03200
Fe683      Fe  0.20433465  0.79718333  0.50588975     1.65800
Fe684      Fe  0.19479596  0.89862909  0.50035490     1.73200
Fe685      Fe  0.09443487  0.78655754  0.49083634     1.54400
O686        O  0.10083695  0.74473698  0.44222963    -0.81400
O687        O  0.13644468  0.90029718  0.53255009    -0.79700
O688        O  0.16668332  0.74257369  0.46005078    -0.83900
O689        O  0.16127032  0.75235947  0.55815719    -0.78800
O690        O  0.09621893  0.83283563  0.43971450    -0.80600
O691        O  0.22224323  0.90025572  0.56282982    -0.83300
C692        C  0.11569731  0.72975959  0.56526345     0.97400
C693        C  0.12940941  0.72881278  0.43612276     1.04900
O694        O  0.16411000  0.82710334  0.49927691    -1.12300
O695        O  0.25844358  0.91124151  0.46678706    -0.74700
O696        O  0.24806217  0.83824913  0.45213599    -0.78200
O697        O  0.08650778  0.73674619  0.54167918    -0.78900
C698        C  0.26796665  0.88354706  0.44356686     0.96400
O699        O  0.24898004  0.84835445  0.55298077    -0.76900
O700        O  0.16905213  0.90075005  0.43820838    -0.82100
C701        C  0.09475361  0.86770250  0.54699609     0.99000
C702        C  0.12740392  0.87404348  0.42249416     1.04900
O703        O  0.07840573  0.82327351  0.53815383    -0.77700
C704        C  0.24856686  0.88287104  0.57404425     1.03200
C705        C  0.45357115  0.01176956  0.74477877     0.02500
C706        C  0.45058997  0.96425341  0.73874102     0.02500
C707        C  0.49500961  0.96187080  0.74076083     0.02500
C708        C  0.04176865  0.00349324  0.75346357     0.02500
C709        C  0.04594512  0.55212281  0.75610995     0.02500
C710        C  0.50140675  0.55617229  0.75387972     0.02500
N711        N  0.08328002  0.99600438  0.76571941    -0.03200
C712        C  0.09091289  0.97757105  0.80642680    -0.00600
C713        C  0.13184874  0.97382763  0.80399801    -0.23500
C714        C  0.15143177  0.48955123  0.76277853    -0.23700
C715        C  0.12215932  0.50166945  0.73891668    -0.00700
H716        H  0.14686820  0.96155032  0.83012899     0.13000
H717        H  0.18509016  0.49245958  0.75156914     0.13100
N718        N  0.40741584  0.51361919  0.74080168    -0.03200
C719        C  0.39796222  0.54604808  0.76292335    -0.00600
C720        C  0.38538677  0.57105931  0.73192848    -0.23500
C721        C  0.38050664  0.05095328  0.69119662    -0.23700
C722        C  0.38910500  0.01339120  0.69787824    -0.00700
H723        H  0.37790389  0.60013557  0.73763480     0.13000
H724        H  0.36314565  0.05692940  0.66249261     0.13100
N725        N  0.50573069  0.60364901  0.76707506    -0.03200
C726        C  0.48919749  0.63091086  0.74407067    -0.00600
C727        C  0.47228562  0.65120298  0.77559786    -0.23500
C728        C  0.98349408  0.64265997  0.81602962    -0.23700
C729        C  0.00646306  0.61630651  0.81174395    -0.00700
H730        H  0.45209126  0.66942846  0.76984432     0.13000
H731        H  0.97894589  0.65870637  0.84649707     0.13100
N732        N  0.09414585  0.59853224  0.75767239    -0.03200
C733        C  0.13527259  0.61185738  0.78346535    -0.00600
C734        C  0.17287038  0.65768714  0.77218045    -0.23500
C735        C  0.15822343  0.67429357  0.73809968    -0.23700
C736        C  0.11052134  0.64009625  0.73019675    -0.00700
H737        H  0.20807401  0.67746008  0.78772038     0.13000
H738        H  0.18089455  0.70829473  0.71995951     0.13100
N739        N  0.99261243  0.91467965  0.73019172    -0.03200
C740        C  0.02662121  0.91387266  0.70099968    -0.00600
C741        C  0.04441627  0.88654254  0.72060595    -0.23500
C742        C  0.51814296  0.86562225  0.75759970    -0.23700
C743        C  0.48599471  0.88197972  0.76423991    -0.00700
H744        H  0.06384367  0.87160926  0.70349788     0.13000
H745        H  0.51905178  0.83637473  0.77578803     0.13100
N746        N  0.40295360  0.91849755  0.73006068    -0.03200
C747        C  0.35799863  0.90175143  0.75131311    -0.00600
C748        C  0.32021149  0.87298496  0.72360978    -0.23500
C749        C  0.33950827  0.87001259  0.68427841    -0.23700
C750        C  0.38933603  0.89507568  0.68874990    -0.00700
H751        H  0.28200510  0.85328959  0.73246382     0.13000
H752        H  0.31895747  0.84554354  0.65732290     0.13100
C753        C  0.08409989  0.62700029  0.65020686    -0.20100
C754        C  0.08936829  0.65192326  0.69080065    -0.06600
C755        C  0.09509743  0.69965485  0.68783969     0.14200
C756        C  0.09659093  0.72048238  0.64561243    -0.20100
C757        C  0.09716394  0.69795175  0.60585668    -0.06600
C758        C  0.08937988  0.65014395  0.60768957     0.14200
C759        C  0.08939430  0.62490356  0.56493217    -0.23500
H760        H  0.08097640  0.59155295  0.65159797     0.15500
H761        H  0.10269077  0.75724700  0.64354434     0.15500
C762        C  0.10403014  0.73177741  0.72835351    -0.23400
H763        H  0.08307557  0.58782450  0.57204655     0.05800
H764        H  0.12480587  0.64623995  0.54702387     0.09000
H765        H  0.06047143  0.62170759  0.54233986     0.09000
H766        H  0.13921415  0.74310757  0.74405187     0.09000
H767        H  0.07478382  0.71298289  0.75369403     0.09000
H768        H  0.10525234  0.76627129  0.71899252     0.05700
C769        C  0.07704314  0.92987374  0.58312724    -0.20100
C770        C  0.06446420  0.88094389  0.57671089    -0.06600
C771        C  0.02258485  0.84497740  0.60019847     0.14200
C772        C  0.00332796  0.85834734  0.63630722    -0.20100
C773        C  0.02319803  0.90702884  0.65001820    -0.06600
C774        C  0.05564784  0.94300041  0.61853353     0.14200
C775        C  0.06423291  0.99394172  0.61866602    -0.23500
H776        H  0.10473579  0.95819458  0.56162612     0.15500
H777        H  0.97794537  0.82967665  0.65890505     0.15500
C778        C  0.99854273  0.79178266  0.58968934    -0.23400
H779        H  0.10262022  0.02024834  0.61173369     0.05800
H780        H  0.05150224  0.00193575  0.65071364     0.09000
H781        H  0.04571787  0.99989488  0.59004577     0.09000
H782        H  0.02169488  0.77670445  0.59979756     0.09000
H783        H  0.99070099  0.78635211  0.55304082     0.09000
H784        H  0.96350760  0.77145408  0.60795432     0.05700
C785        C  0.26857240  0.91493507  0.65144046    -0.20100
C786        C  0.28420786  0.90820993  0.60944933    -0.06600
C787        C  0.33369408  0.93522890  0.59796671     0.14200
C788        C  0.36734462  0.96390415  0.63054130    -0.20100
C789        C  0.35266602  0.97020172  0.67331375    -0.06600
C790        C  0.30160412  0.94814249  0.68220248     0.14200
C791        C  0.27948596  0.96130107  0.72077023    -0.23500
H792        H  0.23002163  0.89745014  0.65857823     0.15500
H793        H  0.40515974  0.98488102  0.62158933     0.15500
C794        C  0.34945837  0.93929971  0.54947338    -0.23400
H795        H  0.25749533  0.97614751  0.70703500     0.05800
H796        H  0.25597029  0.92847423  0.74191723     0.09000
H797        H  0.30575294  0.99004450  0.74240249     0.09000
H798        H  0.32667869  0.94874336  0.52875606     0.09000
H799        H  0.34514111  0.90413564  0.53824788     0.09000
H800        H  0.38719648  0.96911134  0.54342378     0.05700
C801        C  0.47817661  0.60559947  0.65928068    -0.20100
C802        C  0.48369886  0.63893424  0.69352535    -0.06600
C803        C  0.47619396  0.67805971  0.67961901     0.14200
C804        C  0.45107231  0.67416258  0.64009897    -0.20100
C805        C  0.44006467  0.63809370  0.60871543    -0.06600
C806        C  0.45788518  0.60607676  0.61641421     0.14200
C807        C  0.45541268  0.57310688  0.57940224    -0.23500
H808        H  0.48624528  0.57715977  0.66669987     0.15500
H809        H  0.43967960  0.70007979  0.63365032     0.15500
C810        C  0.99826252  0.72671500  0.70138576    -0.23400
H811        H  0.47222200  0.55137230  0.58953323     0.05800
H812        H  0.47516549  0.59527923  0.54903104     0.09000
H813        H  0.41712081  0.54854105  0.57031323     0.09000
H814        H  0.02039114  0.73131776  0.73114536     0.09000
H815        H  0.96802154  0.73228163  0.71185059     0.09000
H816        H  0.02207707  0.75653527  0.67740963     0.05700
C817        C  0.15266461  0.56772306  0.67906798    -0.20100
C818        C  0.14009309  0.52001405  0.69144723    -0.06600
C819        C  0.16026998  0.49724192  0.66405132     0.14200
C820        C  0.19138758  0.52267655  0.62774106    -0.20100
C821        C  0.20631400  0.57127393  0.61807655    -0.06600
C822        C  0.18554584  0.59385673  0.64327876     0.14200
C823        C  0.19899344  0.64579899  0.63366569    -0.23500
H824        H  0.13921513  0.58571618  0.69902165     0.15500
H825        H  0.20572765  0.50438846  0.60757247     0.15500
C826        C  0.15310878  0.94598628  0.67230196    -0.23400
H827        H  0.18141060  0.65857224  0.65755079     0.05800
H828        H  0.18733968  0.64914005  0.59926372     0.09000
H829        H  0.23859616  0.67020967  0.63652058     0.09000
H830        H  0.13626619  0.92916051  0.70480533     0.09000
H831        H  0.18857450  0.94803011  0.67189164     0.09000
H832        H  0.13173029  0.92105925  0.64502712     0.05700
C833        C  0.40541346  0.84248325  0.58514779    -0.20100
C834        C  0.38311843  0.79382891  0.59941407    -0.06600
C835        C  0.37879193  0.78314583  0.64629716     0.14200
C836        C  0.39329469  0.82121137  0.67752943    -0.20100
C837        C  0.41045033  0.86988756  0.66324964    -0.06600
C838        C  0.41981295  0.88022474  0.61637052     0.14200
C839        C  0.44726561  0.93108387  0.59835542    -0.23500
H840        H  0.41171852  0.85124009  0.54926039     0.15500
H841        H  0.38490515  0.81197415  0.71296403     0.15500
C842        C  0.35782863  0.73163130  0.66346284    -0.23400
H843        H  0.47759724  0.93483443  0.57724051     0.05800
H844        H  0.46088906  0.95823776  0.62580063     0.09000
H845        H  0.42466909  0.93751953  0.57529002     0.09000
H846        H  0.37985984  0.71634117  0.65072896     0.09000
H847        H  0.32034920  0.70900417  0.65134579     0.09000
H848        H  0.35708602  0.72954134  0.70103413     0.05700
C849        C  0.08500771  0.89880572  0.31216247    -0.20100
C850        C  0.04674964  0.90437888  0.32950003    -0.06600
C851        C  0.04340723  0.90618534  0.37779490     0.14200
C852        C  0.08096267  0.91113071  0.40445223    -0.20100
C853        C  0.11099784  0.89525305  0.38809611    -0.06600
C854        C  0.11445567  0.88997571  0.34141467     0.14200
C855        C  0.14751045  0.87336842  0.32334582    -0.23500
H856        H  0.08604543  0.89255115  0.27633333     0.15500
H857        H  0.07873389  0.91457155  0.44086161     0.15500
C858        C  0.49539741  0.88001429  0.40201040    -0.23400
H859        H  0.14160674  0.86489225  0.28691106     0.05800
H860        H  0.14074155  0.83975549  0.34118994     0.09000
H861        H  0.18556103  0.90226474  0.32893486     0.09000
H862        H  0.49527264  0.85552277  0.42923854     0.09000
H863        H  0.46672269  0.85505344  0.37979382     0.09000
H864        H  0.48868298  0.90708938  0.41872713     0.05700
C865        C  0.38290490  0.83496930  0.39841298    -0.20100
C866        C  0.36565834  0.78434119  0.39464097    -0.06600
C867        C  0.36161146  0.76520419  0.35130553     0.14200
C868        C  0.37319889  0.79548132  0.31324514    -0.20100
C869        C  0.39007198  0.84592669  0.31590195    -0.06600
C870        C  0.39725607  0.86608044  0.35911907     0.14200
C871        C  0.43090693  0.91994857  0.36276132    -0.23500
H872        H  0.38966163  0.85084089  0.43172535     0.15500
H873        H  0.36602193  0.77879220  0.28026413     0.15500
C874        C  0.34420940  0.71208885  0.34500848    -0.23400
H875        H  0.42966866  0.93367532  0.39680421     0.05800
H876        H  0.42482182  0.93975743  0.33572380     0.09000
H877        H  0.46808499  0.92900252  0.35440883     0.09000
H878        H  0.30777359  0.68946095  0.36080272     0.09000
H879        H  0.37019030  0.70362621  0.36134306     0.09000
H880        H  0.34183140  0.70253197  0.30870398     0.05700
C881        C  0.40254202  0.58078101  0.31974874    -0.20100
C882        C  0.44589854  0.57967171  0.32263701    -0.06600
C883        C  0.46455750  0.58281670  0.36644660     0.14200
C884        C  0.44474134  0.59416789  0.40385649    -0.20100
C885        C  0.40584718  0.60215849  0.39870390    -0.06600
C886        C  0.38400406  0.59446520  0.35599459     0.14200
C887        C  0.34519873  0.60617664  0.34511213    -0.23500
H888        H  0.38933685  0.58244141  0.28676443     0.15500
H889        H  0.46026973  0.59751078  0.43703742     0.15500
C890        C  0.00260042  0.56952802  0.37479087    -0.23400
H891        H  0.31356231  0.57376704  0.33063485     0.05800
H892        H  0.35928366  0.63542697  0.31880016     0.09000
H893        H  0.33337573  0.61857569  0.37489348     0.09000
H894        H  0.03319906  0.59949179  0.39275121     0.09000
H895        H  0.01500148  0.56267134  0.34225932     0.09000
H896        H  0.98766222  0.53596407  0.39609978     0.05700
C897        C  0.14605041  0.66938276  0.39851944    -0.20100
C898        C  0.12035552  0.69416426  0.39884299    -0.06600
C899        C  0.09335620  0.69129083  0.36023352     0.14200
C900        C  0.09151038  0.66228407  0.32392213    -0.20100
C901        C  0.11600496  0.63637031  0.32310261    -0.06600
C902        C  0.14791023  0.64482405  0.36012312     0.14200
C903        C  0.19338545  0.64197374  0.35583814    -0.23500
H904        H  0.16974439  0.67413001  0.42645060     0.15500
H905        H  0.07678854  0.66587561  0.29352140     0.15500
C906        C  0.07015992  0.72210373  0.35489915    -0.23400
H907        H  0.20517475  0.63616857  0.38906739     0.05800
H908        H  0.22364264  0.67739870  0.34326613     0.09000
H909        H  0.18887959  0.61289770  0.33326660     0.09000
H910        H  0.09701738  0.76066240  0.36135955     0.09000
H911        H  0.03882499  0.70906791  0.37862151     0.09000
H912        H  0.05770096  0.72172041  0.32012481     0.05700
C913        C  0.17710350  0.50788404  0.34701303    -0.20100
C914        C  0.13707751  0.51441499  0.33896757    -0.06600
C915        C  0.12026290  0.52888182  0.37666687     0.14200
C916        C  0.14929658  0.54727699  0.41585188    -0.20100
C917        C  0.19365376  0.54826053  0.41958130    -0.06600
C918        C  0.20360335  0.52198542  0.38729605     0.14200
C919        C  0.24297534  0.50987301  0.39419919    -0.23500
H920        H  0.19078540  0.49534203  0.32029544     0.15500
H921        H  0.13863484  0.56334445  0.44239929     0.15500
C922        C  0.07298872  0.52693209  0.37478279    -0.23400
H923        H  0.24700634  0.49045813  0.36496961     0.05800
H924        H  0.23467341  0.48648117  0.42472582     0.09000
H925        H  0.27792585  0.54304904  0.39997968     0.09000
H926        H  0.04331248  0.48879348  0.37347392     0.09000
H927        H  0.07196347  0.54543675  0.34366922     0.09000
H928        H  0.06722294  0.54399515  0.40490691     0.05700
C929        C  0.27715530  0.88125720  0.36117730    -0.20100
C930        C  0.29852543  0.90324317  0.40175005    -0.06600
C931        C  0.34503901  0.94508845  0.39993830     0.14200
C932        C  0.36806905  0.96427413  0.35777152    -0.20100
C933        C  0.34753351  0.94303789  0.31635479    -0.06600
C934        C  0.29918781  0.90137547  0.31908722     0.14200
C935        C  0.26565342  0.88002395  0.27955955    -0.23500
H936        H  0.24054020  0.85018376  0.36214677     0.15500
H937        H  0.40327105  0.99576728  0.35723431     0.15500
C938        C  0.37134444  0.96908416  0.44217674    -0.23400
H939        H  0.28337070  0.89456733  0.24692627     0.05800
H940        H  0.23584992  0.88792591  0.28253455     0.09000
H941        H  0.24935985  0.83987091  0.27920686     0.09000
H942        H  0.37452484  0.94181787  0.46311536     0.09000
H943        H  0.35166682  0.98427450  0.46032749     0.09000
H944        H  0.40860450  0.99937493  0.43500076     0.05700
C945        C  0.39343149  0.54543075  0.89485839    -0.20100
C946        C  0.37233672  0.57422584  0.89998624    -0.06600
C947        C  0.35091623  0.58250808  0.86291399     0.14200
C948        C  0.35473170  0.56630127  0.82089068    -0.20100
C949        C  0.38561956  0.54750007  0.81239806    -0.06600
C950        C  0.40217924  0.53346034  0.85100860     0.14200
C951        C  0.42788364  0.50567749  0.84749042    -0.23500
H952        H  0.40289194  0.53265514  0.92484710     0.15500
H953        H  0.33279955  0.56889930  0.79471751     0.15500
C954        C  0.32151137  0.60651996  0.86882142    -0.23400
H955        H  0.42812799  0.48951724  0.88081750     0.05800
H956        H  0.46483604  0.52828792  0.83446635     0.09000
H957        H  0.41096181  0.47666448  0.82340690     0.09000
H958        H  0.34316570  0.64235126  0.88484536     0.09000
H959        H  0.29241871  0.58358501  0.89300894     0.09000
H960        H  0.30648930  0.61074375  0.83653156     0.05700
C961        C  0.39526700  0.55813808  0.10087879    -0.20100
C962        C  0.39640677  0.60169036  0.10728497    -0.06600
C963        C  0.41383015  0.62680446  0.14778933     0.14200
C964        C  0.42417383  0.60394503  0.18319655    -0.20100
C965        C  0.42083966  0.55793838  0.17864564    -0.06600
C966        C  0.41124509  0.53865164  0.13424904     0.14200
C967        C  0.42995588  0.50776512  0.11628612    -0.23500
H968        H  0.38583983  0.54134558  0.06785392     0.15500
H969        H  0.42518725  0.61765698  0.21642646     0.15500
C970        C  0.41679863  0.67502079  0.15522341    -0.23400
H971        H  0.45774739  0.52646939  0.08937845     0.05800
H972        H  0.40255110  0.98004945  0.09462909     0.09000
H973        H  0.44548174  0.49576605  0.14337539     0.09000
H974        H  0.38051780  0.67101911  0.15118810     0.09000
H975        H  0.44238060  0.70229360  0.13016280     0.09000
H976        H  0.42998110  0.68913107  0.18958146     0.05700
C977        C  0.20414342  0.57866490  0.86439323    -0.20100
C978        C  0.19997194  0.60149789  0.90264378    -0.06600
C979        C  0.16405351  0.61440943  0.90348018     0.14200
C980        C  0.13433325  0.60422865  0.86562668    -0.20100
C981        C  0.14504262  0.59066377  0.82398174    -0.06600
C982        C  0.18552657  0.58339154  0.82356295     0.14200
C983        C  0.21935586  0.59497335  0.78332930    -0.23500
H984        H  0.22795566  0.56450284  0.86353382     0.15500
H985        H  0.10609862  0.61212170  0.86763121     0.15500
C986        C  0.15650041  0.63809488  0.94426512    -0.23400
H987        H  0.23297789  0.56920516  0.78145157     0.05800
H988        H  0.25153201  0.63181313  0.78746766     0.09000
H989        H  0.20270494  0.59502145  0.75103947     0.09000
H990        H  0.18857020  0.67475905  0.94916119     0.09000
H991        H  0.15042216  0.61522655  0.97499005     0.09000
H992        H  0.12476896  0.64281675  0.94032889     0.05700
C993        C  0.41933377  0.83580369  0.87867421    -0.20100
C994        C  0.40721788  0.78699426  0.87634525    -0.06600
C995        C  0.40858281  0.76929357  0.83283129     0.14200
C996        C  0.42495264  0.80095756  0.79466796    -0.20100
C997        C  0.44400415  0.85179025  0.79761276    -0.06600
C998        C  0.43756969  0.86805419  0.84068423     0.14200
C999        C  0.94950117  0.91830941  0.84928096    -0.23500
H1000       H  0.41609289  0.84961166  0.91113071     0.15500
H1001       H  0.42787097  0.78649402  0.76247361     0.15500
C1002       C  0.39120537  0.71663893  0.82544911    -0.23400
H1003       H  0.91560659  0.91667435  0.85984342     0.05800
H1004       H  0.96571426  0.94275807  0.82009561     0.09000
H1005       H  0.97456630  0.93317099  0.87791593     0.09000
H1006       H  0.35184287  0.69631066  0.83279342     0.09000
H1007       H  0.41119943  0.70446370  0.84734136     0.09000
H1008       H  0.39641648  0.70911787  0.78984572     0.05700
C1009       C  0.15998382  0.56800245  0.10760792    -0.20100
C1010       C  0.19180555  0.61615735  0.09192243    -0.06600
C1011       C  0.17967051  0.65180888  0.10291528     0.14200
C1012       C  0.14266186  0.64008931  0.13438016    -0.20100
C1013       C  0.11824238  0.59491464  0.15765155    -0.06600
C1014       C  0.11815978  0.55697336  0.13372594     0.14200
C1015       C  0.07195958  0.52521235  0.10945461    -0.23500
H1016       H  0.16281051  0.53837656  0.09310654     0.15500
H1017       H  0.14533641  0.67080017  0.15072538     0.15500
C1018       C  0.20828727  0.70400315  0.08651111    -0.23400
H1019       H  0.06852769  0.54570605  0.08061839     0.05800
H1020       H  0.04002943  0.51137676  0.13259582     0.09000
H1021       H  0.07294816  0.49517037  0.09313880     0.09000
H1022       H  0.20309263  0.70641086  0.04967362     0.09000
H1023       H  0.24677102  0.71922405  0.09394692     0.09000
H1024       H  0.19785895  0.72756752  0.10450418     0.05700
C1025       C  0.46356609  0.80589349  0.11500097    -0.20100
C1026       C  0.41523778  0.78938779  0.10281550    -0.06600
C1027       C  0.38561252  0.79348058  0.13639288     0.14200
C1028       C  0.40629099  0.81904450  0.17649428    -0.20100
C1029       C  0.45611112  0.84349521  0.18529177    -0.06600
C1030       C  0.48321784  0.82991007  0.15641251     0.14200
C1031       C  0.52548848  0.82649544  0.17430870    -0.23500
H1032       H  0.48517110  0.79625857  0.09391483     0.15500
H1033       H  0.38236304  0.81471954  0.20381434     0.15500
C1034       C  0.33168040  0.76882050  0.13212314    -0.23400
H1035       H  0.05283312  0.83163724  0.14890050     0.05800
H1036       H  0.51171431  0.78986690  0.18994289     0.09000
H1037       H  0.04634266  0.85402602  0.20268805     0.09000
H1038       H  0.31664730  0.72918235  0.12735508     0.09000
H1039       H  0.32284457  0.78536357  0.10326215     0.09000
H1040       H  0.31386719  0.77284219  0.16274381     0.05700
C1041       C  0.05236939  0.66573279  0.92255495    -0.20100
C1042       C  0.09222068  0.70960213  0.90928193    -0.06600
C1043       C  0.11325997  0.71374240  0.86625695     0.14200
C1044       C  0.08886001  0.67583937  0.83515993    -0.20100
C1045       C  0.04561658  0.63232155  0.84651746    -0.06600
C1046       C  0.03300568  0.62593862  0.89379104     0.14200
C1047       C  0.50984804  0.57857803  0.91811831    -0.23500
H1048       H  0.04007219  0.66072872  0.95760698     0.15500
H1049       H  0.10229001  0.68132615  0.80132956     0.15500
C1050       C  0.16042851  0.75840049  0.85292473    -0.23400
H1051       H  0.53530929  0.57804951  0.94313083     0.05800
H1052       H  0.50125964  0.54871063  0.89566618     0.09000
H1053       H  0.47821864  0.57364795  0.93761845     0.09000
H1054       H  0.18914460  0.76251821  0.87633811     0.09000
H1055       H  0.15673978  0.79121355  0.85462383     0.09000
H1056       H  0.17211363  0.75582713  0.81813289     0.05700
C1057       C  0.10702425  0.70579038  0.19795935    -0.20100
C1058       C  0.06714864  0.65768335  0.19057978    -0.06600
C1059       C  0.05405308  0.64661917  0.14527681     0.14200
C1060       C  0.07422110  0.68103275  0.11027284    -0.24100
C1061       C  0.11164820  0.72768923  0.11760827    -0.06600
C1062       C  0.12947260  0.74067633  0.16204052     0.14200
C1063       C  0.17053057  0.79107521  0.17171827    -0.23500
H1064       H  0.11815723  0.71734508  0.23227963     0.15500
H1065       H  0.06171149  0.67023450  0.07592693     0.15500
C1066       C  0.52032338  0.59778875  0.13107194    -0.23400
H1067       H  0.17936821  0.79558825  0.20826419     0.05800
H1068       H  0.16051931  0.81846852  0.16149508     0.09000
H1069       H  0.20346992  0.79817256  0.15253578     0.09000
H1070       H  0.50786100  0.57176841  0.15998003     0.09000
H1071       H  0.53725312  0.58631069  0.10538904     0.09000
H1072       H  0.49226563  0.60193831  0.11384801     0.05700
C1073       C  0.11314691  0.97060730  0.91775626    -0.20100
C1074       C  0.10451620  0.92273426  0.91504186    -0.06600
C1075       C  0.06682623  0.89028303  0.88705491     0.14200
C1076       C  0.04619685  0.90886922  0.85750620    -0.20100
C1077       C  0.06376888  0.95894217  0.85077095    -0.06600
C1078       C  0.08731062  0.98589177  0.88969447     0.14200
C1079       C  0.06431546  0.50920771  0.91338639    -0.23500
H1080       H  0.13404295  0.99308495  0.94564509     0.15500
H1081       H  0.02223341  0.88377155  0.83527311     0.15500
C1082       C  0.04920172  0.83623425  0.88597911    -0.23400
H1083       H  0.03162178  0.48136250  0.93214097     0.05800
H1084       H  0.05342698  0.52683058  0.88760811     0.09000
H1085       H  0.08871982  0.53594589  0.93828663     0.09000
H1086       H  0.03116520  0.81853586  0.91858012     0.09000
H1087       H  0.02203897  0.81727526  0.85925711     0.09000
H1088       H  0.08006189  0.83045005  0.87920873     0.05700
C1089       C  0.32468603  0.92934470  0.81144740    -0.20100
C1090       C  0.34316587  0.89925558  0.79976761    -0.06600
C1091       C  0.32577635  0.85580456  0.82611986     0.14200
C1092       C  0.30149028  0.85055564  0.86755049    -0.20100
C1093       C  0.28729921  0.88397868  0.88082009    -0.06600
C1094       C  0.29664157  0.92233293  0.85052568     0.14200
C1095       C  0.27335187  0.95299469  0.85643430    -0.23500
H1096       H  0.33117325  0.95793518  0.78855621     0.15500
H1097       H  0.29062166  0.81809161  0.88801718     0.15500
C1098       C  0.32384570  0.81083842  0.80794728    -0.23400
H1099       H  0.27907453  0.97638197  0.82629187     0.05800
H1100       H  0.28855121  0.97689416  0.88608997     0.09000
H1101       H  0.23359470  0.92906442  0.86095896     0.09000
H1102       H  0.34744964  0.81867238  0.77786416     0.09000
H1103       H  0.28606230  0.78433182  0.79835308     0.09000
H1104       H  0.33435320  0.79320474  0.83426982     0.05700
C1105       C  0.07644587  0.94040535  0.15580364    -0.20100
C1106       C  0.10822513  0.95401000  0.19247098    -0.06600
C1107       C  0.14558632  0.94203938  0.19022407     0.14200
C1108       C  0.15478386  0.92547975  0.15026958    -0.20100
C1109       C  0.12756432  0.91840454  0.11208723    -0.06600
C1110       C  0.08601117  0.92289344  0.11518143     0.14200
C1111       C  0.05306670  0.91025622  0.07510523    -0.23500
H1112       H  0.04585520  0.94588961  0.15805025     0.15500
H1113       H  0.18346611  0.91752681  0.14923374     0.15500
C1114       C  0.17990981  0.95034529  0.22793918    -0.23400
H1115       H  0.02118068  0.91389318  0.08294777     0.05800
H1116       H  0.03980927  0.87232393  0.06472150     0.09000
H1117       H  0.07328559  0.93465154  0.04595250     0.09000
H1118       H  0.18461574  0.91834089  0.23207779     0.09000
H1119       H  0.16567009  0.95558351  0.25979140     0.09000
H1120       H  0.21599990  0.98255483  0.22006367     0.05700
C1121       C  0.34064615  0.92985023  0.16521809    -0.20100
C1122       C  0.37545644  0.91577367  0.16577135    -0.06600
C1123       C  0.38508690  0.90008763  0.12422579     0.14200
C1124       C  0.35382566  0.89069376  0.08720474    -0.20100
C1125       C  0.31737097  0.90325749  0.08900110    -0.06600
C1126       C  0.31201611  0.92438405  0.12845050     0.14200
C1127       C  0.27196705  0.93538664  0.13464841    -0.23500
H1128       H  0.33022571  0.93815848  0.19621238     0.15500
H1129       H  0.36058695  0.87765517  0.05581480     0.15500
C1130       C  0.43506420  0.90913940  0.11413851    -0.23400
H1131       H  0.26970421  0.94661711  0.16963687     0.05800
H1132       H  0.23748648  0.90156352  0.12754487     0.09000
H1133       H  0.27745640  0.96547802  0.11149156     0.09000
H1134       H  0.43364713  0.87800800  0.09693223     0.09000
H1135       H  0.45717656  0.91863106  0.14510720     0.09000
H1136       H  0.45397911  0.94029876  0.09001691     0.05700
Fe1137     Fe  0.71726037  0.41680226  0.99608965     1.65800
Fe1138     Fe  0.60598446  0.31604512  0.00764434     1.73200
Fe1139     Fe  0.70444683  0.30431022  0.00123969     1.54400
O1140       O  0.73697916  0.33101278  0.93958206    -0.81400
O1141       O  0.60001488  0.26187918  0.05122620    -0.79700
O1142       O  0.75690153  0.40937179  0.94244094    -0.83900
O1143       O  0.76465392  0.41737376  0.04343635    -0.78800
O1144       O  0.64676509  0.24874429  0.96767144    -0.80600
O1145       O  0.61117390  0.35585263  0.06294200    -0.83300
C1146       C  0.78194536  0.39010964  0.05223976     0.97400
C1147       C  0.75849894  0.37413835  0.92326333     1.04900
O1148       O  0.67620251  0.34651630  0.00108035    -1.12300
O1149       O  0.60089441  0.36593775  0.96782668    -0.74700
O1150       O  0.67446067  0.42602308  0.94890435    -0.78200
O1151       O  0.76758002  0.35024982  0.03285698    -0.78900
C1152       C  0.62870198  0.40461152  0.94595515     0.96400
O1153       O  0.67935652  0.42737325  0.04946860    -0.76900
O1154       O  0.59667695  0.27550076  0.95086295    -0.82100
C1155       C  0.63078095  0.25959298  0.07645266     0.99000
C1156       C  0.61377703  0.24795953  0.94365604     1.04900
O1157       O  0.67486797  0.27899261  0.06490044    -0.77700
C1158       C  0.64013452  0.40007518  0.07201617     1.03200
Fe1159     Fe  0.90748910  0.19415651  0.99126432     1.65800
Fe1160     Fe  0.80935070  0.20737711  0.99438137     1.73200
Fe1161     Fe  0.79309046  0.09328768  0.00866548     1.54400
O1162       O  0.82838051  0.07510276  0.96149204    -0.81400
O1163       O  0.75522152  0.16742499  0.04053094    -0.79700
O1164       O  0.90185922  0.13987547  0.94921805    -0.83900
O1165       O  0.91059065  0.15778990  0.04765503    -0.78800
O1166       O  0.74463394  0.08897960  0.95960078    -0.80600
O1167       O  0.85286583  0.24846978  0.04796696    -0.83300
C1168       C  0.88067064  0.11926759  0.06895310     0.97400
C1169       C  0.86911979  0.09635979  0.94133071     1.04900
O1170       O  0.83643318  0.16442639  0.99761427    -1.12300
O1171       O  0.85668690  0.25455427  0.94363143    -0.74700
O1172       O  0.91182737  0.23335589  0.93179743    -0.78200
O1173       O  0.83671607  0.09229692  0.05822025    -0.78900
C1174       C  0.89059601  0.25619242  0.91958614     0.96400
O1175       O  0.92256303  0.25103925  0.03581439    -0.76900
O1176       O  0.76231482  0.16577778  0.94443377    -0.82100
C1177       C  0.73525387  0.12757474  0.06242873     0.99000
C1178       C  0.73746677  0.11986892  0.93840062     1.04900
O1179       O  0.74969201  0.09752944  0.05830228    -0.77700
C1180       C  0.89590471  0.26148841  0.05989750     1.03200
C1181       C  0.95414586  0.49682480  0.25035950     0.02500
C1182       C  0.50241709  0.04439973  0.24997239     0.02500
C1183       C  0.54742490  0.04221407  0.25094977     0.02500
C1184       C  0.54480748  0.99405344  0.25641838     0.02500
C1185       C  0.99801134  0.44735228  0.25409438     0.02500
C1186       C  0.95290741  0.44928225  0.25007804     0.02500
N1187       N  0.90764409  0.99906212  0.24758478    -0.03200
C1188       C  0.89646739  0.02554661  0.21684203    -0.00600
C1189       C  0.85138609  0.01990315  0.22517753    -0.23500
C1190       C  0.83179132  0.48834155  0.26223575    -0.23700
C1191       C  0.86416492  0.47396873  0.27488032    -0.00700
H1192       H  0.83411005  0.03643712  0.20669660     0.13000
H1193       H  0.79722572  0.47819692  0.27800297     0.13100
N1194       N  0.59067980  0.49286091  0.26157281    -0.03200
C1195       C  0.61594477  0.49596189  0.22239568    -0.00600
C1196       C  0.66273113  0.53457679  0.22349820    -0.23500
C1197       C  0.66992280  0.05045817  0.26604276    -0.23700
C1198       C  0.62733222  0.02289848  0.29054353    -0.00700
H1199       H  0.69105107  0.54402086  0.19837862     0.13000
H1200       H  0.70558001  0.07455331  0.27928857     0.13100
N1201       N  0.59589133  0.08824162  0.24533978    -0.03200
C1202       C  0.62781140  0.10109774  0.20833507    -0.00600
C1203       C  0.67407488  0.13737222  0.21967265    -0.23500
C1204       C  0.67154819  0.15245281  0.26081160    -0.23700
C1205       C  0.62567132  0.12197608  0.27781327    -0.00700
H1206       H  0.70573006  0.15558437  0.19768559     0.13000
H1207       H  0.70034838  0.18495771  0.27578505     0.13100
N1208       N  0.00461080  0.09290697  0.25234978    -0.03200
C1209       C  0.98082044  0.10610060  0.28393627    -0.00600
C1210       C  0.98917225  0.15256240  0.27670569    -0.23500
C1211       C  0.51723966  0.17061067  0.24018974    -0.23700
C1212       C  0.52917047  0.13663397  0.22630365    -0.00700
H1213       H  0.97496358  0.17142119  0.29611229     0.13000
H1214       H  0.52972972  0.20665680  0.22599394     0.13100
N1215       N  0.90541844  0.40315318  0.24552876    -0.03200
C1216       C  0.87323478  0.38981250  0.20996562    -0.00600
C1217       C  0.82918952  0.34915750  0.22025208    -0.23500
C1218       C  0.83172216  0.33556483  0.26239805    -0.23700
C1219       C  0.87825593  0.36601159  0.27714339    -0.00700
H1220       H  0.79747223  0.33189777  0.19913339     0.13000
H1221       H  0.80307498  0.30362162  0.27968729     0.13100
N1222       N  0.49623235  0.39957930  0.25945608    -0.03200
C1223       C  0.50458577  0.38254732  0.30011429    -0.00600
C1224       C  0.48367433  0.33250181  0.30087315    -0.23500
C1225       C  0.96352850  0.31561245  0.26097760    -0.23700
C1226       C  0.97080590  0.35518279  0.23550501    -0.00700
H1227       H  0.48795279  0.31039690  0.32649591     0.13000
H1228       H  0.94701389  0.27815120  0.25017530     0.13100
Fe1229     Fe  0.81355483  0.08621085  0.51671568     1.65800
Fe1230     Fe  0.78483913  0.17654915  0.50709416     1.73200
Fe1231     Fe  0.90322481  0.20459600  0.49671225     1.54400
O1232       O  0.92641401  0.17729184  0.54827194    -0.81400
O1233       O  0.81784598  0.22939120  0.45516745    -0.79700
O1234       O  0.87039239  0.09985292  0.56093668    -0.83900
O1235       O  0.85259541  0.08521746  0.46093836    -0.78800
O1236       O  0.90076084  0.25130747  0.54366467    -0.80600
O1237       O  0.74119468  0.12377084  0.45969395    -0.83300
C1238       C  0.88940418  0.11708295  0.43876494     0.97400
C1239       C  0.91112914  0.13725398  0.56953922     1.04900
O1240       O  0.83382882  0.15576084  0.50648180    -1.12300
O1241       O  0.74328820  0.12878221  0.55846155    -0.74700
O1242       O  0.77135283  0.07898672  0.57264000    -0.78200
O1243       O  0.91206210  0.16212944  0.44854781    -0.78900
C1244       C  0.74271963  0.09462757  0.58127381     0.96400
O1245       O  0.75346841  0.06199421  0.47489493    -0.76900
O1246       O  0.82312577  0.22874196  0.55618165    -0.82100
C1247       C  0.85873040  0.25040391  0.43475281     0.99000
C1248       C  0.86808530  0.25506868  0.56473743     1.04900
O1249       O  0.89193608  0.24143521  0.44458939    -0.77700
C1250       C  0.73094789  0.07969488  0.45409592     1.03200
Fe1251     Fe  0.70437341  0.29786830  0.50650176     1.65800
Fe1252     Fe  0.69525257  0.39945115  0.50108566     1.73200
Fe1253     Fe  0.59504907  0.28781562  0.49114736     1.54400
O1254       O  0.60219554  0.24747676  0.44115719    -0.81400
O1255       O  0.63637645  0.40096294  0.53260383    -0.79700
O1256       O  0.66607484  0.24261484  0.46117150    -0.83900
O1257       O  0.66179896  0.25380679  0.55909428    -0.78800
O1258       O  0.59677684  0.33545104  0.44130232    -0.80600
O1259       O  0.72171597  0.40046204  0.56386555    -0.83300
C1260       C  0.61610561  0.23023561  0.56517766     0.97400
C1261       C  0.62987489  0.23026416  0.43600453     1.04900
O1262       O  0.66447543  0.32802625  0.49983055    -1.12300
O1263       O  0.75913530  0.41163264  0.46814487    -0.74700
O1264       O  0.74739853  0.33832998  0.45245705    -0.78200
O1265       O  0.58697771  0.23662421  0.54082758    -0.78900
C1266       C  0.76777799  0.38369951  0.44425459     0.96400
O1267       O  0.74943711  0.34951536  0.55309646    -0.76900
O1268       O  0.67049194  0.40204968  0.43864617    -0.82100
C1269       C  0.59511371  0.36820433  0.54790332     0.99000
C1270       C  0.62833826  0.37632908  0.42372446     1.04900
O1271       O  0.57929966  0.32364596  0.53985395    -0.77700
C1272       C  0.74853803  0.38353814  0.57463017     1.03200
C1273       C  0.95356832  0.51117882  0.74503128     0.02500
C1274       C  0.95058248  0.46368174  0.73867655     0.02500
C1275       C  0.99497719  0.46128417  0.74046770     0.02500
C1276       C  0.54170600  0.50460530  0.75430705     0.02500
C1277       C  0.54588162  0.05269242  0.75646006     0.02500
C1278       C  0.00207017  0.05563928  0.75356430     0.02500
N1279       N  0.58353440  0.49763845  0.76663158    -0.03200
C1280       C  0.59169964  0.47953513  0.80731634    -0.00600
C1281       C  0.63301378  0.47647265  0.80473387    -0.23500
C1282       C  0.65114440  0.98952091  0.76366291    -0.23700
C1283       C  0.62196695  0.00159015  0.73959287    -0.00700
H1284       H  0.64837942  0.46442879  0.83073579     0.13000
H1285       H  0.68477111  0.99227354  0.75256469     0.13100
N1286       N  0.90806572  0.01374012  0.74007733    -0.03200
C1287       C  0.89901789  0.04654501  0.76201537    -0.00600
C1288       C  0.88678212  0.07172650  0.73092550    -0.23500
C1289       C  0.88023584  0.55052734  0.69233482    -0.23700
C1290       C  0.88883998  0.51294486  0.69883013    -0.00700
H1291       H  0.87953878  0.10097594  0.73660462     0.13000
H1292       H  0.86274834  0.55655892  0.66377223     0.13100
N1293       N  0.00678571  0.10326718  0.76691961    -0.03200
C1294       C  0.99077241  0.13088422  0.74375439    -0.00600
C1295       C  0.97390613  0.15138861  0.77509312    -0.23500
C1296       C  0.48260305  0.14263180  0.81610784    -0.23700
C1297       C  0.50580292  0.11649301  0.81190031    -0.00700
H1298       H  0.95405015  0.16993395  0.76914559     0.13000
H1299       H  0.47764084  0.15838540  0.84658457     0.13100
N1300       N  0.59403882  0.09911148  0.75820474    -0.03200
C1301       C  0.63455845  0.11286243  0.78503406    -0.00600
C1302       C  0.67233914  0.15858514  0.77372626    -0.23500
C1303       C  0.65835643  0.17475194  0.73873916    -0.23700
C1304       C  0.61083292  0.14043799  0.73030101    -0.00700
H1305       H  0.70725061  0.17849065  0.78978067     0.13000
H1306       H  0.68125660  0.20864076  0.72052006     0.13100
N1307       N  0.49291346  0.41559713  0.73108653    -0.03200
C1308       C  0.52679074  0.41447838  0.70193838    -0.00600
C1309       C  0.54422134  0.38685724  0.72164756    -0.23500
C1310       C  0.01743187  0.36457900  0.75753176    -0.23700
C1311       C  0.98544402  0.38115909  0.76401027    -0.00700
H1312       H  0.56364702  0.37182443  0.70466078     0.13000
H1313       H  0.01811633  0.33523942  0.77575892     0.13100
N1314       N  0.90307868  0.41797397  0.72960125    -0.03200
C1315       C  0.85803755  0.40030675  0.75099057    -0.00600
C1316       C  0.82046145  0.37158016  0.72304317    -0.23500
C1317       C  0.84002275  0.36967462  0.68343281    -0.23700
C1318       C  0.88984509  0.39509436  0.68801846    -0.00700
H1319       H  0.78223947  0.35139592  0.73179365     0.13000
H1320       H  0.81972571  0.34548826  0.65621333     0.13100
C1321       C  0.58561690  0.12760194  0.64990949    -0.20100
C1322       C  0.59001984  0.15220084  0.69053752    -0.06600
C1323       C  0.59515843  0.19969152  0.68749277     0.14200
C1324       C  0.59610380  0.22023951  0.64525513    -0.20100
C1325       C  0.59731570  0.19804532  0.60550967    -0.06600
C1326       C  0.59084416  0.15074084  0.60738417     0.14200
C1327       C  0.59221734  0.12609654  0.56468477    -0.23500
H1328       H  0.58328205  0.09252120  0.65132474     0.15500
H1329       H  0.60147455  0.25672673  0.64316682     0.15500
C1330       C  0.60389873  0.23190534  0.72788233    -0.23400
H1331       H  0.58746447  0.08963575  0.57186106     0.05800
H1332       H  0.62754841  0.14853349  0.54689856     0.09000
H1333       H  0.56284534  0.12160316  0.54199350     0.09000
H1334       H  0.63907964  0.24339457  0.74365775     0.09000
H1335       H  0.57458745  0.21313866  0.75313989     0.09000
H1336       H  0.60502487  0.26632280  0.71839124     0.05700
C1337       C  0.57744016  0.43044840  0.58417003    -0.20100
C1338       C  0.56480324  0.38149421  0.57765354    -0.06600
C1339       C  0.52271894  0.34555758  0.60093553     0.14200
C1340       C  0.50344558  0.35890539  0.63709205    -0.20100
C1341       C  0.52336687  0.40758794  0.65091364    -0.06600
C1342       C  0.55587194  0.44354899  0.61946634     0.14200
C1343       C  0.56413436  0.49437786  0.61938941    -0.23500
H1344       H  0.60524360  0.45880878  0.56278635     0.15500
H1345       H  0.47793496  0.33018311  0.65956737     0.15500
C1346       C  0.49834302  0.29243702  0.58997621    -0.23400
H1347       H  0.60249992  0.52088159  0.61256391     0.05800
H1348       H  0.55115020  0.50233656  0.65130656     0.09000
H1349       H  0.54559978  0.50005562  0.59062001     0.09000
H1350       H  0.52111465  0.27692586  0.60009099     0.09000
H1351       H  0.49082387  0.28745463  0.55323967     0.09000
H1352       H  0.46314123  0.27211743  0.60800039     0.05700
C1353       C  0.76850609  0.41449440  0.65241118    -0.20100
C1354       C  0.78414971  0.40882698  0.61000390    -0.06600
C1355       C  0.83353673  0.43643108  0.59837282     0.14200
C1356       C  0.86722882  0.46430779  0.63116576    -0.20100
C1357       C  0.85256691  0.46984144  0.67421218    -0.06600
C1358       C  0.80152408  0.44736800  0.68336954     0.14200
C1359       C  0.77940211  0.45984382  0.72240724    -0.23500
H1360       H  0.72996021  0.39659347  0.65974084     0.15500
H1361       H  0.90501718  0.48544140  0.62217687     0.15500
C1362       C  0.84907857  0.44185081  0.54970966    -0.23400
H1363       H  0.75651630  0.47384335  0.70922959     0.05800
H1364       H  0.75673494  0.42687780  0.74370279     0.09000
H1365       H  0.80565995  0.48913353  0.74361397     0.09000
H1366       H  0.82706137  0.45319213  0.53006039     0.09000
H1367       H  0.84346207  0.40664257  0.53709704     0.09000
H1368       H  0.88725691  0.47068720  0.54396572     0.05700
C1369       C  0.97922685  0.10526563  0.65899313    -0.20100
C1370       C  0.98531189  0.13882910  0.69321019    -0.06600
C1371       C  0.97800206  0.17807245  0.67940970     0.14200
C1372       C  0.95196537  0.17383777  0.64048438    -0.20100
C1373       C  0.94012574  0.13738803  0.60927998    -0.06600
C1374       C  0.95824779  0.10554107  0.61645676     0.14200
C1375       C  0.95535167  0.07255264  0.57927332    -0.23500
H1376       H  0.98730305  0.07679678  0.66622483     0.15500
H1377       H  0.94064169  0.19985449  0.63434504     0.15500
C1378       C  0.49793887  0.22720546  0.70185982    -0.23400
H1379       H  0.97224056  0.05080629  0.58908002     0.05800
H1380       H  0.97485494  0.09473263  0.54881465     0.09000
H1381       H  0.91696255  0.04797131  0.57047831     0.09000
H1382       H  0.52018586  0.23186635  0.73156324     0.09000
H1383       H  0.46751188  0.23241380  0.71248191     0.09000
H1384       H  0.52152655  0.25719679  0.67793882     0.05700
C1385       C  0.65331568  0.06764589  0.67984573    -0.20100
C1386       C  0.64010372  0.01973550  0.69211332    -0.06600
C1387       C  0.65985031  0.99653470  0.66465167     0.14200
C1388       C  0.69059940  0.02155523  0.62794533    -0.20100
C1389       C  0.70600958  0.07025424  0.61827241    -0.06600
C1390       C  0.68610458  0.09341472  0.64387929     0.14200
C1391       C  0.70055267  0.14567269  0.63459429    -0.23500
H1392       H  0.64060607  0.08614381  0.70020753     0.15500
H1393       H  0.70447408  0.00296959  0.60758007     0.15500
C1394       C  0.65322981  0.44813589  0.67371733    -0.23400
H1395       H  0.68380367  0.15895880  0.65893043     0.05800
H1396       H  0.68875366  0.14946618  0.60040483     0.09000
H1397       H  0.74029125  0.16933910  0.63705105     0.09000
H1398       H  0.63545789  0.43123802  0.70589899     0.09000
H1399       H  0.68872780  0.45032427  0.67436324     0.09000
H1400       H  0.63268300  0.42329189  0.64608839     0.05700
C1401       C  0.90601786  0.34192723  0.58475746    -0.20100
C1402       C  0.88389896  0.29341501  0.59941851    -0.06600
C1403       C  0.87991080  0.28321236  0.64639407     0.14200
C1404       C  0.89452682  0.32158585  0.67729553    -0.20100
C1405       C  0.91116971  0.37002460  0.66261009    -0.06600
C1406       C  0.92022312  0.37993780  0.61563579     0.14200
C1407       C  0.94625130  0.43057335  0.59700359    -0.23500
H1408       H  0.91195133  0.35032616  0.54879045     0.15500
H1409       H  0.88641224  0.31270788  0.71281062     0.15500
C1410       C  0.85927619  0.23191883  0.66403899    -0.23400
H1411       H  0.97660182  0.43497212  0.57547673     0.05800
H1412       H  0.95977809  0.45810260  0.62411122     0.09000
H1413       H  0.92243859  0.43567780  0.57433912     0.09000
H1414       H  0.88130026  0.21661260  0.65134211     0.09000
H1415       H  0.82170383  0.20904839  0.65226676     0.09000
H1416       H  0.85887210  0.23025280  0.70161986     0.05700
C1417       C  0.58735443  0.40146644  0.31285301    -0.20100
C1418       C  0.54792549  0.40543955  0.32954504    -0.06600
C1419       C  0.54326813  0.40581134  0.37783370     0.14200
C1420       C  0.58120787  0.41272141  0.40502698    -0.20100
C1421       C  0.61235756  0.39793861  0.38925462    -0.06600
C1422       C  0.61687044  0.39325402  0.34260625     0.14200
C1423       C  0.65073831  0.37739654  0.32509959    -0.23500
H1424       H  0.58919211  0.39558778  0.27704582     0.15500
H1425       H  0.57796284  0.41545457  0.44141157     0.15500
C1426       C  0.99760266  0.38204261  0.40341118    -0.23400
H1427       H  0.64495323  0.36838026  0.28877730     0.05800
H1428       H  0.64459788  0.34420302  0.34335980     0.09000
H1429       H  0.68860310  0.40684623  0.33052269     0.09000
H1430       H  0.99756787  0.35800712  0.43105981     0.09000
H1431       H  0.96871528  0.35674362  0.38156084     0.09000
H1432       H  0.99117534  0.40953911  0.41964539     0.05700
C1433       C  0.88345578  0.33334679  0.39888167    -0.20100
C1434       C  0.86703376  0.28296468  0.39475444    -0.06600
C1435       C  0.86418688  0.26440765  0.35130233     0.14200
C1436       C  0.87522821  0.29486890  0.31343765    -0.20100
C1437       C  0.89127708  0.34509622  0.31648334    -0.06600
C1438       C  0.89778087  0.36474488  0.35985245     0.14200
C1439       C  0.93039540  0.41869084  0.36393968    -0.23500
H1440       H  0.88951731  0.34886928  0.43231803     0.15500
H1441       H  0.86831472  0.27847604  0.28033792     0.15500
C1442       C  0.84835489  0.21170736  0.34458769    -0.23400
H1443       H  0.92831710  0.43195369  0.39798060     0.05800
H1444       H  0.92408627  0.43815161  0.33673666     0.09000
H1445       H  0.96789899  0.42870131  0.35588843     0.09000
H1446       H  0.81180371  0.18810027  0.35984420     0.09000
H1447       H  0.87475448  0.20390725  0.36106096     0.09000
H1448       H  0.84682631  0.20273712  0.30818669     0.05700
C1449       C  0.90373050  0.08130025  0.31998863    -0.20100
C1450       C  0.94721033  0.08047873  0.32270763    -0.06600
C1451       C  0.96598232  0.08354276  0.36645712     0.14200
C1452       C  0.94584138  0.09410070  0.40412901    -0.20100
C1453       C  0.90624455  0.10101420  0.39938855    -0.06600
C1454       C  0.88445032  0.09357981  0.35666344     0.14200
C1455       C  0.84483072  0.10419636  0.34624207    -0.23500
H1456       H  0.89063699  0.08334500  0.28702011     0.15500
H1457       H  0.96156770  0.09752703  0.43722739     0.15500
C1458       C  0.50425930  0.07117752  0.37431207    -0.23400
H1459       H  0.81341759  0.07131181  0.33212877     0.05800
H1460       H  0.85804352  0.13311467  0.31968772     0.09000
H1461       H  0.83308097  0.11660189  0.37608037     0.09000
H1462       H  0.53488398  0.10099242  0.39238856     0.09000
H1463       H  0.51659721  0.06452379  0.34166194     0.09000
H1464       H  0.48916337  0.03746181  0.39541793     0.05700
C1465       C  0.64592649  0.16999669  0.39883849    -0.20100
C1466       C  0.62103177  0.19563244  0.39858572    -0.06600
C1467       C  0.59488104  0.19328637  0.35946156     0.14200
C1468       C  0.59268911  0.16372547  0.32346862    -0.20100
C1469       C  0.61634675  0.13696686  0.32324960    -0.06600
C1470       C  0.64780616  0.14514995  0.36060296     0.14200
C1471       C  0.69310755  0.14191922  0.35669256    -0.23500
H1472       H  0.66912100  0.17432660  0.42708670     0.15500
H1473       H  0.57840798  0.16745658  0.29278885     0.15500
C1474       C  0.57312740  0.22528468  0.35320315    -0.23400
H1475       H  0.70495893  0.13670708  0.39011500     0.05800
H1476       H  0.72351621  0.17700302  0.34367374     0.09000
H1477       H  0.68831590  0.11233588  0.33465277     0.09000
H1478       H  0.60089246  0.26367963  0.35917619     0.09000
H1479       H  0.54191256  0.21353651  0.37682440     0.09000
H1480       H  0.56072547  0.22457497  0.31831272     0.05700
C1481       C  0.67601837  0.00669238  0.34789696    -0.20100
C1482       C  0.63629179  0.01365225  0.33960373    -0.06600
C1483       C  0.61985775  0.02868484  0.37716700     0.14200
C1484       C  0.64920730  0.04758466  0.41612906    -0.20100
C1485       C  0.69342805  0.04829038  0.41990068    -0.06600
C1486       C  0.70270659  0.02112898  0.38808729     0.14200
C1487       C  0.74152308  0.00834000  0.39546205    -0.23500
H1488       H  0.68943363  0.99363142  0.32143201     0.15500
H1489       H  0.63885153  0.06414284  0.44245828     0.15500
C1490       C  0.57261851  0.02672408  0.37531846    -0.23400
H1491       H  0.74487951  0.98792263  0.36674521     0.05800
H1492       H  0.73317275  0.98570650  0.42652348     0.09000
H1493       H  0.77677504  0.04130678  0.40067836     0.09000
H1494       H  0.54294640  0.98854757  0.37422447     0.09000
H1495       H  0.57165945  0.04515910  0.34411310     0.09000
H1496       H  0.56697069  0.04391141  0.40540558     0.05700
C1497       C  0.77663320  0.38050120  0.36197769    -0.20100
C1498       C  0.79802757  0.40312585  0.40231927    -0.06600
C1499       C  0.84456826  0.44480383  0.40024949     0.14200
C1500       C  0.86766371  0.46321953  0.35800065    -0.20100
C1501       C  0.84697655  0.44163061  0.31676110    -0.06600
C1502       C  0.79858320  0.40005894  0.31976925     0.14200
C1503       C  0.76489191  0.37818641  0.28042673    -0.23500
H1504       H  0.74003895  0.34938894  0.36317374     0.15500
H1505       H  0.90306156  0.49432212  0.35724173     0.15500
C1506       C  0.87081231  0.46929685  0.44234228    -0.23400
H1507       H  0.78231733  0.39259983  0.24770038     0.05800
H1508       H  0.73484657  0.38573632  0.28344591     0.09000
H1509       H  0.74894419  0.33806831  0.28032601     0.09000
H1510       H  0.87373052  0.44220757  0.46376994     0.09000
H1511       H  0.85126510  0.48494242  0.45997949     0.09000
H1512       H  0.90817673  0.49924050  0.43509312     0.05700
C1513       C  0.89404904  0.04655117  0.89381014    -0.20100
C1514       C  0.87255050  0.07505041  0.89866866    -0.06600
C1515       C  0.85050805  0.08233957  0.86151291     0.14200
C1516       C  0.85508315  0.06653557  0.81950149    -0.20100
C1517       C  0.88628549  0.04800538  0.81135016    -0.06600
C1518       C  0.90274277  0.03413679  0.85013113     0.14200
C1519       C  0.92790019  0.00570826  0.84694773    -0.23500
H1520       H  0.90338512  0.03387873  0.92392241     0.15500
H1521       H  0.83317207  0.06880766  0.79309430     0.15500
C1522       C  0.81906100  0.10408264  0.86747435    -0.23400
H1523       H  0.92696570  0.98870239  0.88015349     0.05800
H1524       H  0.96524069  0.02799949  0.83469516     0.09000
H1525       H  0.91124344  0.97715011  0.82238142     0.09000
H1526       H  0.83917426  0.13987522  0.88390269     0.09000
H1527       H  0.79019835  0.07976291  0.89134360     0.09000
H1528       H  0.80374271  0.10780656  0.83517411     0.05700
C1529       C  0.89577744  0.05791709  0.09982759    -0.20100
C1530       C  0.89823271  0.10215013  0.10582128    -0.06600
C1531       C  0.91704825  0.12791230  0.14580892     0.14200
C1532       C  0.92680918  0.10484936  0.18142422    -0.20100
C1533       C  0.92234402  0.05832612  0.17728027    -0.06600
C1534       C  0.91205238  0.03857436  0.13302688     0.14200
C1535       C  0.93123202  0.00821251  0.11461136    -0.23500
H1536       H  0.88553897  0.04067499  0.06703749     0.15500
H1537       H  0.92809516  0.11891179  0.21455215     0.15500
C1538       C  0.92210465  0.17713980  0.15258534    -0.23400
H1539       H  0.95894617  0.02732986  0.08771017     0.05800
H1540       H  0.90247750  0.47859358  0.09648350     0.09000
H1541       H  0.94702325  0.99628439  0.14149937     0.09000
H1542       H  0.88645142  0.17461702  0.14867487     0.09000
H1543       H  0.94805972  0.20344506  0.12713463     0.09000
H1544       H  0.93600536  0.19154793  0.18670246     0.05700
C1545       C  0.70214268  0.07863942  0.86648001    -0.20100
C1546       C  0.69894184  0.10234134  0.90445415    -0.06600
C1547       C  0.66348262  0.11585116  0.90541001     0.14200
C1548       C  0.63386145  0.10615225  0.86751798    -0.20100
C1549       C  0.64386770  0.09172405  0.82591817    -0.06600
C1550       C  0.68368064  0.08346509  0.82562130     0.14200
C1551       C  0.71758093  0.09479472  0.78553079    -0.23500
H1552       H  0.72530604  0.06379146  0.86577973     0.15500
H1553       H  0.60619530  0.11477742  0.86960184     0.15500
C1554       C  0.65605291  0.13925893  0.94648541    -0.23400
H1555       H  0.73130021  0.06909054  0.78400067     0.05800
H1556       H  0.74966078  0.13172732  0.78948259     0.09000
H1557       H  0.70092867  0.09449628  0.75316935     0.09000
H1558       H  0.68847368  0.17551570  0.95199531     0.09000
H1559       H  0.64926269  0.11574866  0.97688456     0.09000
H1560       H  0.62473883  0.14469346  0.94255247     0.05700
C1561       C  0.91858339  0.33586131  0.87858913    -0.20100
C1562       C  0.90644749  0.28706669  0.87661007    -0.06600
C1563       C  0.90791960  0.26901654  0.83331978     0.14200
C1564       C  0.92426127  0.30039365  0.79494407    -0.20100
C1565       C  0.94341876  0.35129438  0.79751707    -0.06600
C1566       C  0.93709989  0.36787716  0.84047750     0.14200
C1567       C  0.45054867  0.41957305  0.85067133    -0.23500
H1568       H  0.91541220  0.34991663  0.91093632     0.15500
H1569       H  0.92715456  0.28564687  0.76291432     0.15500
C1570       C  0.89066806  0.21626274  0.82642048    -0.23400
H1571       H  0.41672583  0.41797019  0.86144712     0.05800
H1572       H  0.46678652  0.44413487  0.82150317     0.09000
H1573       H  0.47572424  0.43408349  0.87930557     0.09000
H1574       H  0.85123596  0.19585881  0.83342988     0.09000
H1575       H  0.91037493  0.20415291  0.84878664     0.09000
H1576       H  0.89629244  0.20854523  0.79100999     0.05700
C1577       C  0.66146424  0.06805867  0.10886097    -0.20100
C1578       C  0.69307744  0.11605599  0.09271331    -0.06600
C1579       C  0.68070262  0.15170716  0.10305349     0.14200
C1580       C  0.64385178  0.14027066  0.13460744    -0.20100
C1581       C  0.61924296  0.09513667  0.15795810    -0.06600
C1582       C  0.61916394  0.05714451  0.13409987     0.14200
C1583       C  0.57370819  0.02681854  0.10823917    -0.23500
H1584       H  0.66455194  0.03838447  0.09485474     0.15500
H1585       H  0.64674670  0.17114905  0.15081339     0.15500
C1586       C  0.70881424  0.20365465  0.08577213    -0.23400
H1587       H  0.57180597  0.04856700  0.07964717     0.05800
H1588       H  0.54105379  0.01286733  0.13043108     0.09000
H1589       H  0.57454079  0.99680186  0.09163312     0.09000
H1590       H  0.70335182  0.20524343  0.04887046     0.09000
H1591       H  0.74745256  0.21956254  0.09314326     0.09000
H1592       H  0.69797651  0.22722182  0.10312234     0.05700
C1593       C  0.96392012  0.30455153  0.11629103    -0.20100
C1594       C  0.91567023  0.28843993  0.10410103    -0.06600
C1595       C  0.88622158  0.29264278  0.13786252     0.14200
C1596       C  0.90712620  0.31823977  0.17796181    -0.20100
C1597       C  0.95698231  0.34252452  0.18661367    -0.06600
C1598       C  0.98379946  0.32862919  0.15765749     0.14200
C1599       C  0.02644297  0.32564963  0.17520867    -0.23500
H1600       H  0.98536621  0.29479972  0.09510703     0.15500
H1601       H  0.88335428  0.31441505  0.20523435     0.15500
C1602       C  0.83229168  0.26846745  0.13360230    -0.23400
H1603       H  0.55235080  0.33131673  0.14649462     0.05800
H1604       H  0.01306147  0.28915927  0.19099747     0.09000
H1605       H  0.54713977  0.35421496  0.20049103     0.09000
H1606       H  0.81682807  0.22878847  0.12871299     0.09000
H1607       H  0.82365770  0.28527344  0.10482533     0.09000
H1608       H  0.81466377  0.27263132  0.16428062     0.05700
C1609       C  0.55163697  0.16668223  0.92255802    -0.20100
C1610       C  0.59155776  0.21043789  0.90918707    -0.06600
C1611       C  0.61248744  0.21445858  0.86612764     0.14200
C1612       C  0.58797914  0.17649552  0.83513038    -0.20100
C1613       C  0.54487706  0.13293946  0.84670152    -0.06600
C1614       C  0.53221842  0.12675915  0.89397124     0.14200
C1615       C  0.00918435  0.07854163  0.91892310    -0.23500
H1616       H  0.53934009  0.16185214  0.95760154     0.15500
H1617       H  0.60140816  0.18173359  0.80130895     0.15500
C1618       C  0.65977971  0.25891541  0.85273122    -0.23400
H1619       H  0.03465949  0.07789395  0.94383308     0.05800
H1620       H  0.99970419  0.04809372  0.89699423     0.09000
H1621       H  0.97802515  0.07446839  0.93869042     0.09000
H1622       H  0.68846687  0.26269862  0.87600373     0.09000
H1623       H  0.65642915  0.29191667  0.85459316     0.09000
H1624       H  0.67126878  0.25629603  0.81787116     0.05700
C1625       C  0.60811361  0.20604856  0.19741023    -0.20100
C1626       C  0.56821306  0.15797023  0.19012190    -0.06600
C1627       C  0.55524216  0.14660228  0.14482546     0.14200
C1628       C  0.57561012  0.18081292  0.10968181    -0.24100
C1629       C  0.61257982  0.22768483  0.11708153    -0.06600
C1630       C  0.63034175  0.24087444  0.16148478     0.14200
C1631       C  0.67105923  0.29146013  0.17114793    -0.23500
H1632       H  0.61925615  0.21773841  0.23169093     0.15500
H1633       H  0.56322988  0.16989338  0.07532355     0.15500
C1634       C  0.02142623  0.09808238  0.13035284    -0.23400
H1635       H  0.67964668  0.29619497  0.20774425     0.05800
H1636       H  0.66082174  0.31859500  0.16059450     0.09000
H1637       H  0.70420489  0.29873336  0.15223677     0.09000
H1638       H  0.00907467  0.07185770  0.15910948     0.09000
H1639       H  0.03893884  0.08719032  0.10469664     0.09000
H1640       H  0.99326355  0.10188382  0.11294297     0.05700
C1641       C  0.61530968  0.47170076  0.91798157    -0.20100
C1642       C  0.60547103  0.42347016  0.91529245    -0.06600
C1643       C  0.56721170  0.39143435  0.88762138     0.14200
C1644       C  0.54706085  0.41069656  0.85827544    -0.20100
C1645       C  0.56505505  0.46086145  0.85188361    -0.06600
C1646       C  0.58940078  0.48750278  0.89075660     0.14200
C1647       C  0.56378429  0.01025448  0.91404143    -0.23500
H1648       H  0.63697507  0.49403728  0.94562648     0.15500
H1649       H  0.52260891  0.38586115  0.83598201     0.15500
C1650       C  0.54855598  0.33719016  0.88676907    -0.23400
H1651       H  0.53087432  0.98239280  0.93252093     0.05800
H1652       H  0.55311297  0.02802425  0.88815784     0.09000
H1653       H  0.58791918  0.03686592  0.93915926     0.09000
H1654       H  0.53088842  0.31995031  0.91961800     0.09000
H1655       H  0.52083311  0.31848127  0.86042753     0.09000
H1656       H  0.57881729  0.33058889  0.87957796     0.05700
C1657       C  0.82502485  0.42829950  0.81114659    -0.20100
C1658       C  0.84307304  0.39785240  0.79946289    -0.06600
C1659       C  0.82497401  0.35419668  0.82569871     0.14200
C1660       C  0.80058733  0.34912599  0.86706650    -0.20100
C1661       C  0.78689931  0.38294980  0.88033146    -0.06600
C1662       C  0.79659194  0.42129788  0.84996042     0.14200
C1663       C  0.77307142  0.45177791  0.85545806    -0.23500
H1664       H  0.83221494  0.45721941  0.78846754     0.15500
H1665       H  0.78929591  0.31655415  0.88750330     0.15500
C1666       C  0.82269097  0.30902368  0.80760055    -0.23400
H1667       H  0.77887163  0.47503754  0.82521337     0.05800
H1668       H  0.78796752  0.47574196  0.88510058     0.09000
H1669       H  0.73330563  0.42770146  0.85978555     0.09000
H1670       H  0.84612055  0.31657416  0.77742209     0.09000
H1671       H  0.78481308  0.28260739  0.79818817     0.09000
H1672       H  0.83319220  0.29140020  0.83393731     0.05700
C1673       C  0.57697652  0.44093747  0.15628830    -0.20100
C1674       C  0.60905264  0.45492700  0.19272153    -0.06600
C1675       C  0.64660016  0.44325171  0.19025214     0.14200
C1676       C  0.65552604  0.42647197  0.15028894    -0.20100
C1677       C  0.62812985  0.41920619  0.11219472    -0.06600
C1678       C  0.58649680  0.42355145  0.11554130     0.14200
C1679       C  0.55329725  0.41073736  0.07566485    -0.23500
H1680       H  0.54615120  0.44602394  0.15880602     0.15500
H1681       H  0.68417743  0.41854323  0.14918260     0.15500
C1682       C  0.68130482  0.45190691  0.22771977    -0.23400
H1683       H  0.52117274  0.41387413  0.08382516     0.05800
H1684       H  0.54043861  0.37294069  0.06508557     0.09000
H1685       H  0.57318508  0.43537809  0.04655729     0.09000
H1686       H  0.68570681  0.41975032  0.23218026     0.09000
H1687       H  0.66773833  0.45793907  0.25960931     0.09000
H1688       H  0.71743103  0.48378068  0.21925941     0.05700
C1689       C  0.83934888  0.42790297  0.16604510    -0.20100
C1690       C  0.87408862  0.41373826  0.16662247    -0.06600
C1691       C  0.88369358  0.39811155  0.12502210     0.14200
C1692       C  0.85275856  0.38930707  0.08781484    -0.20100
C1693       C  0.81667727  0.40238192  0.08942444    -0.06600
C1694       C  0.81132592  0.42335202  0.12899909     0.14200
C1695       C  0.77191676  0.43526468  0.13496117    -0.23500
H1696       H  0.82887236  0.43611706  0.19698851     0.15500
H1697       H  0.85959163  0.37638088  0.05639470     0.15500
C1698       C  0.93359857  0.40704079  0.11494632    -0.23400
H1699       H  0.76949182  0.44628012  0.16999576     0.05800
H1700       H  0.73726183  0.40185096  0.12740722     0.09000
H1701       H  0.77823623  0.46578127  0.11197581     0.09000
H1702       H  0.93204779  0.37614512  0.09714610     0.09000
H1703       H  0.95553781  0.41594796  0.14597444     0.09000
H1704       H  0.95278438  0.43856097  0.09126314     0.05700
Fe1705     Fe  0.71757058  0.91701172  0.99617934     1.65800
Fe1706     Fe  0.60637448  0.81577452  0.00726285     1.73200
Fe1707     Fe  0.70512590  0.80431896  0.00147601     1.54400
O1708       O  0.73878810  0.83199697  0.94027987    -0.81400
O1709       O  0.60003547  0.76176307  0.05107973    -0.79700
O1710       O  0.75618269  0.90969939  0.94165488    -0.83900
O1711       O  0.76630629  0.91800660  0.04207046    -0.78800
O1712       O  0.64828682  0.74909487  0.96708135    -0.80600
O1713       O  0.61122295  0.85572071  0.06236064    -0.83300
C1714       C  0.78291895  0.89037885  0.05178947     0.97400
C1715       C  0.75895391  0.87479391  0.92318030     1.04900
O1716       O  0.67671557  0.84651434  0.00111883    -1.12300
O1717       O  0.60098857  0.86521644  0.96725191    -0.74700
O1718       O  0.67405579  0.92708748  0.95024446    -0.78200
O1719       O  0.76740287  0.84956953  0.03407165    -0.78900
C1720       C  0.62833434  0.90477776  0.94650592     0.96400
O1721       O  0.68044952  0.92685328  0.05064980    -0.76900
O1722       O  0.59747790  0.77508547  0.95066088    -0.82100
C1723       C  0.63055930  0.75912410  0.07630364     0.99000
C1724       C  0.61497668  0.74790404  0.94334525     1.04900
O1725       O  0.67460867  0.77805401  0.06475014    -0.77700
C1726       C  0.64070927  0.89951398  0.07246384     1.03200
Fe1727     Fe  0.90821183  0.69348248  0.99185721     1.65800
Fe1728     Fe  0.81039847  0.70759847  0.99446273     1.73200
Fe1729     Fe  0.79324327  0.59312319  0.00888867     1.54400
O1730       O  0.82930052  0.57440066  0.96296407    -0.81400
O1731       O  0.75640114  0.66871723  0.04124082    -0.79700
O1732       O  0.90225292  0.63953527  0.94951340    -0.83900
O1733       O  0.91056435  0.65601864  0.04783562    -0.78800
O1734       O  0.74587375  0.58900320  0.95853949    -0.80600
O1735       O  0.85456805  0.74926420  0.04747382    -0.83300
C1736       C  0.88016086  0.61818913  0.06975945     0.97400
C1737       C  0.86981097  0.59574469  0.94240052     1.04900
O1738       O  0.83708295  0.66424942  0.99795325    -1.12300
O1739       O  0.85739944  0.75380579  0.94320625    -0.74700
O1740       O  0.91353868  0.73372159  0.93260151    -0.78200
O1741       O  0.83587887  0.59208553  0.05962198    -0.78900
C1742       C  0.89192713  0.75603261  0.91978812     0.96400
O1743       O  0.92355907  0.74988189  0.03695295    -0.76900
O1744       O  0.76293334  0.66582196  0.94478868    -0.82100
C1745       C  0.73535508  0.62831112  0.06227071     0.99000
C1746       C  0.73866205  0.62009319  0.93771802     1.04900
O1747       O  0.74871113  0.59749024  0.05729150    -0.77700
C1748       C  0.89722215  0.76148735  0.06008625     1.03200
C1749       C  0.95421814  0.99768589  0.24984232     0.02500
C1750       C  0.50187560  0.54413746  0.25003166     0.02500
C1751       C  0.54712507  0.54235374  0.25082544     0.02500
C1752       C  0.54495021  0.49442268  0.25644915     0.02500
C1753       C  0.99753542  0.94773889  0.25391398     0.02500
C1754       C  0.95257928  0.94992524  0.24978462     0.02500
N1755       N  0.90734614  0.49775018  0.24838673    -0.03200
C1756       C  0.89581853  0.52412632  0.21786624    -0.00600
C1757       C  0.85059542  0.51803186  0.22636116    -0.23500
C1758       C  0.83225728  0.99026739  0.26104954    -0.23700
C1759       C  0.86436447  0.97565260  0.27396602    -0.00700
H1760       H  0.83308225  0.53446371  0.20811552     0.13000
H1761       H  0.79763485  0.98026743  0.27661213     0.13100
N1762       N  0.59029904  0.99205778  0.26159442    -0.03200
C1763       C  0.61551888  0.99525415  0.22235888    -0.00600
C1764       C  0.66233538  0.03379644  0.22353812    -0.23500
C1765       C  0.67023693  0.55148234  0.26590237    -0.23700
C1766       C  0.62765095  0.52392194  0.29043978    -0.00700
H1767       H  0.69063585  0.04324058  0.19839943     0.13000
H1768       H  0.70588048  0.57573701  0.27910514     0.13100
N1769       N  0.59540700  0.58856871  0.24507564    -0.03200
C1770       C  0.62750607  0.60140385  0.20823010    -0.00600
C1771       C  0.67373626  0.63767564  0.21975662    -0.23500
C1772       C  0.67097110  0.65285978  0.26077198    -0.23700
C1773       C  0.62501379  0.62234007  0.27754667    -0.00700
H1774       H  0.70553040  0.65583116  0.19793369     0.13000
H1775       H  0.69972269  0.68528405  0.27591426     0.13100
N1776       N  0.00387895  0.59206827  0.25285074    -0.03200
C1777       C  0.97966276  0.60480474  0.28439535    -0.00600
C1778       C  0.98781834  0.65122883  0.27742210    -0.23500
C1779       C  0.51570681  0.66995606  0.24014294    -0.23700
C1780       C  0.52797805  0.63622253  0.22628766    -0.00700
H1781       H  0.97322992  0.66975558  0.29680986     0.13000
H1782       H  0.52797517  0.70595997  0.22595807     0.13100
N1783       N  0.90495861  0.90391593  0.24484127    -0.03200
C1784       C  0.87358935  0.89094872  0.20870535    -0.00600
C1785       C  0.82934035  0.85012761  0.21796242    -0.23500
C1786       C  0.83089110  0.83599741  0.26009963    -0.23700
C1787       C  0.87707525  0.86622422  0.27581605    -0.00700
H1788       H  0.79815651  0.83316093  0.19615928     0.13000
H1789       H  0.80181523  0.80383508  0.27673315     0.13100
N1790       N  0.49534894  0.89914261  0.25856748    -0.03200
C1791       C  0.50349094  0.88160852  0.29897609    -0.00600
C1792       C  0.48152431  0.83146138  0.29974692    -0.23500
C1793       C  0.96161208  0.81592212  0.26158494    -0.23700
C1794       C  0.97009228  0.85561968  0.23566385    -0.00700
H1795       H  0.48550155  0.80896201  0.32514564     0.13000
H1796       H  0.94491591  0.77840784  0.25090434     0.13100
Fe1797     Fe  0.81322101  0.58640592  0.51693610     1.65800
Fe1798     Fe  0.78458283  0.67687823  0.50658530     1.73200
Fe1799     Fe  0.90287459  0.70450257  0.49561716     1.54400
O1800       O  0.92703767  0.67654340  0.54609959    -0.81400
O1801       O  0.81642994  0.72836459  0.45368025    -0.79700
O1802       O  0.86977244  0.60020366  0.56133300    -0.83900
O1803       O  0.85248089  0.58482627  0.46160333    -0.78800
O1804       O  0.90109521  0.75064481  0.54360101    -0.80600
O1805       O  0.74009846  0.62314419  0.46033213    -0.83300
C1806       C  0.88820912  0.61653255  0.43814817     0.97400
C1807       C  0.91131144  0.63704154  0.56848149     1.04900
O1808       O  0.83351409  0.65591606  0.50602040    -1.12300
O1809       O  0.74400248  0.63051722  0.55900887    -0.74700
O1810       O  0.77103875  0.57978017  0.57261219    -0.78200
O1811       O  0.91021333  0.66194636  0.44651049    -0.78900
C1812       C  0.74307076  0.59611316  0.58164810     0.96400
O1813       O  0.75326733  0.56184808  0.47498371    -0.76900
O1814       O  0.82377448  0.73024520  0.55441195    -0.82100
C1815       C  0.85766130  0.75052841  0.43402154     0.99000
C1816       C  0.86861982  0.75547431  0.56380614     1.04900
O1817       O  0.89144853  0.74262164  0.44450599    -0.77700
C1818       C  0.73030389  0.57925831  0.45452840     1.03200
Fe1819     Fe  0.70363871  0.79768103  0.50529278     1.65800
Fe1820     Fe  0.69466107  0.89941223  0.50060705     1.73200
Fe1821     Fe  0.59400906  0.78761094  0.49043755     1.54400
O1822       O  0.60020136  0.74597219  0.44144225    -0.81400
O1823       O  0.63647796  0.90107175  0.53310100    -0.79700
O1824       O  0.66556188  0.74307845  0.45962984    -0.83900
O1825       O  0.66062274  0.75290002  0.55767178    -0.78800
O1826       O  0.59617323  0.83432539  0.43960495    -0.80600
O1827       O  0.72210148  0.90047267  0.56292909    -0.83300
C1828       C  0.61499767  0.73026217  0.56462166     0.97400
C1829       C  0.62846650  0.72964737  0.43553989     1.04900
O1830       O  0.66366410  0.82788278  0.49906191    -1.12300
O1831       O  0.75808632  0.91180787  0.46677613    -0.74700
O1832       O  0.74696415  0.83869061  0.45131987    -0.78200
O1833       O  0.58591645  0.73742055  0.54100830    -0.78900
C1834       C  0.76705404  0.88405680  0.44300728     0.96400
O1835       O  0.74888789  0.84876928  0.55219284    -0.76900
O1836       O  0.66902334  0.90222244  0.43865582    -0.82100
C1837       C  0.59464023  0.86851669  0.54727492     0.99000
C1838       C  0.62750370  0.87563457  0.42267121     1.04900
O1839       O  0.57803419  0.82414187  0.53801469    -0.77700
C1840       C  0.74859710  0.88314134  0.57363224     1.03200
C1841       C  0.95359271  0.01113958  0.74465635     0.02500
C1842       C  0.95058124  0.96360289  0.73835729     0.02500
C1843       C  0.99494840  0.96112124  0.74037335     0.02500
C1844       C  0.54175813  0.00425006  0.75405232     0.02500
C1845       C  0.54552985  0.55290966  0.75650660     0.02500
C1846       C  0.00200989  0.55576141  0.75360718     0.02500
N1847       N  0.58327378  0.99675846  0.76642657    -0.03200
C1848       C  0.59101387  0.97842060  0.80717753    -0.00600
C1849       C  0.63194561  0.97466631  0.80470300    -0.23500
C1850       C  0.65223440  0.49187073  0.76379542    -0.23700
C1851       C  0.62255618  0.50335592  0.73982800    -0.00700
H1852       H  0.64703607  0.96247815  0.83084957     0.13000
H1853       H  0.68596348  0.49495805  0.75254577     0.13100
N1854       N  0.90802615  0.51372245  0.74090429    -0.03200
C1855       C  0.89929174  0.54662440  0.76300672    -0.00600
C1856       C  0.88686692  0.57182788  0.73211454    -0.23500
C1857       C  0.88043654  0.05042239  0.69117397    -0.23700
C1858       C  0.88911454  0.01290213  0.69781132    -0.00700
H1859       H  0.87966913  0.60107810  0.73799165     0.13000
H1860       H  0.86300349  0.05636568  0.66251018     0.13100
N1861       N  0.00661727  0.60343062  0.76658342    -0.03200
C1862       C  0.99083730  0.63108618  0.74306371    -0.00600
C1863       C  0.97440109  0.65220676  0.77417267    -0.23500
C1864       C  0.48196707  0.64168280  0.81723533    -0.23700
C1865       C  0.50571462  0.61615498  0.81233609    -0.00700
H1866       H  0.95486222  0.67103676  0.76796259     0.13000
H1867       H  0.47729589  0.65729545  0.84794934     0.13100
N1868       N  0.59351089  0.59960590  0.75792632    -0.03200
C1869       C  0.63433155  0.61400375  0.78459362    -0.00600
C1870       C  0.67150165  0.66002787  0.77318719    -0.23500
C1871       C  0.65699017  0.67566318  0.73818476    -0.23700
C1872       C  0.60960592  0.64081862  0.72992563    -0.00700
H1873       H  0.70648532  0.68039898  0.78903075     0.13000
H1874       H  0.67943477  0.70959315  0.71986003     0.13100
N1875       N  0.49276842  0.91550389  0.73048965    -0.03200
C1876       C  0.52659501  0.91469178  0.70106319    -0.00600
C1877       C  0.54449831  0.88735138  0.72042303    -0.23500
C1878       C  0.01756288  0.86451812  0.75746147    -0.23700
C1879       C  0.98542395  0.88092361  0.76388636    -0.00700
H1880       H  0.56368061  0.87229602  0.70306736     0.13000
H1881       H  0.01835366  0.83524053  0.77571226     0.13100
N1882       N  0.90301220  0.91789102  0.72939193    -0.03200
C1883       C  0.85793792  0.90085332  0.75051407    -0.00600
C1884       C  0.82035455  0.87212300  0.72258874    -0.23500
C1885       C  0.83991832  0.86949433  0.68326384    -0.23700
C1886       C  0.88971207  0.89461625  0.68797781    -0.00700
H1887       H  0.78210309  0.85229904  0.73124512     0.13000
H1888       H  0.81957287  0.84516111  0.65615234     0.13100
C1889       C  0.58381215  0.62748802  0.64954982    -0.20100
C1890       C  0.58832347  0.65216831  0.69017813    -0.06600
C1891       C  0.59313811  0.69954512  0.68703029     0.14200
C1892       C  0.59462033  0.72027632  0.64474369    -0.20100
C1893       C  0.59621470  0.69818694  0.60508187    -0.06600
C1894       C  0.58902882  0.65060751  0.60698319     0.14200
C1895       C  0.58940383  0.62556041  0.56421576    -0.23500
H1896       H  0.58129105  0.59231292  0.65097981     0.15500
H1897       H  0.60003397  0.75677968  0.64260703     0.15500
C1898       C  0.60120274  0.73159485  0.72738321    -0.23400
H1899       H  0.58319369  0.58851372  0.57129522     0.05800
H1900       H  0.62488352  0.64708304  0.54646188     0.09000
H1901       H  0.56053396  0.62229169  0.54149302     0.09000
H1902       H  0.63650556  0.74367692  0.74314967     0.09000
H1903       H  0.57196316  0.71247672  0.75262212     0.09000
H1904       H  0.60161097  0.76564805  0.71785878     0.05700
C1905       C  0.57723441  0.93076516  0.58352324    -0.20100
C1906       C  0.56443457  0.88178216  0.57705851    -0.06600
C1907       C  0.52240700  0.84586006  0.60044322     0.14200
C1908       C  0.50289973  0.85935878  0.63625920    -0.20100
C1909       C  0.52298881  0.90803019  0.65008264    -0.06600
C1910       C  0.55580467  0.94397785  0.61880505     0.14200
C1911       C  0.56443060  0.99493569  0.61883247    -0.23500
H1912       H  0.60508594  0.95905617  0.56211732     0.15500
H1913       H  0.47733441  0.83074897  0.65878401     0.15500
C1914       C  0.49862570  0.79255111  0.59036878    -0.23400
H1915       H  0.60283894  0.02125759  0.61193779     0.05800
H1916       H  0.55172646  0.00298986  0.65086471     0.09000
H1917       H  0.54579142  0.00072897  0.59020511     0.09000
H1918       H  0.52206928  0.77784730  0.60063105     0.09000
H1919       H  0.49055120  0.78668476  0.55378415     0.09000
H1920       H  0.46372082  0.77211921  0.60884121     0.05700
C1921       C  0.76868247  0.91464792  0.65114919    -0.20100
C1922       C  0.78431989  0.90819814  0.60905312    -0.06600
C1923       C  0.83382225  0.93526212  0.59761669     0.14200
C1924       C  0.86746485  0.96364599  0.63032766    -0.20100
C1925       C  0.85274892  0.96975388  0.67316575    -0.06600
C1926       C  0.80168033  0.94770545  0.68200148     0.14200
C1927       C  0.77948397  0.96088671  0.72048348    -0.23500
H1928       H  0.73012611  0.89718599  0.65826557     0.15500
H1929       H  0.90529742  0.98461161  0.62142184     0.15500
C1930       C  0.84962959  0.93972356  0.54910369    -0.23400
H1931       H  0.75753610  0.97572288  0.70664176     0.05800
H1932       H  0.75591338  0.92807086  0.74162250     0.09000
H1933       H  0.80567063  0.98969349  0.74211151     0.09000
H1934       H  0.82710115  0.94969873  0.52860771     0.09000
H1935       H  0.84498007  0.90454782  0.53748626     0.09000
H1936       H  0.88751505  0.96930715  0.54323458     0.05700
C1937       C  0.97865605  0.60461440  0.65844992    -0.20100
C1938       C  0.98522330  0.63861124  0.69240127    -0.06600
C1939       C  0.97853608  0.67814999  0.67814877     0.14200
C1940       C  0.95269891  0.67400789  0.63908771    -0.20100
C1941       C  0.94057832  0.63736335  0.60810566    -0.06600
C1942       C  0.95807529  0.60506141  0.61571659     0.14200
C1943       C  0.95513626  0.57197580  0.57865198    -0.23500
H1944       H  0.98628908  0.57588471  0.66595153     0.15500
H1945       H  0.94157065  0.70013549  0.63274158     0.15500
C1946       C  0.49434239  0.72600288  0.70364171    -0.23400
H1947       H  0.97163917  0.54991616  0.58863253     0.05800
H1948       H  0.97491135  0.59406277  0.54824855     0.09000
H1949       H  0.91675688  0.54785024  0.56966949     0.09000
H1950       H  0.51668555  0.73092050  0.73334971     0.09000
H1951       H  0.46324972  0.73010203  0.71431073     0.09000
H1952       H  0.51755041  0.75655562  0.68005450     0.05700
C1953       C  0.65293252  0.56898851  0.67962051    -0.20100
C1954       C  0.64025208  0.52131242  0.69226703    -0.06600
C1955       C  0.66031473  0.49827691  0.66510814     0.14200
C1956       C  0.69142301  0.52339648  0.62871453    -0.20100
C1957       C  0.70645453  0.57195239  0.61872668    -0.06600
C1958       C  0.68578717  0.59481521  0.64371075     0.14200
C1959       C  0.69928792  0.64672021  0.63377192    -0.23500
H1960       H  0.63969611  0.58725674  0.69957143     0.15500
H1961       H  0.70566719  0.50488723  0.60874107     0.15500
C1962       C  0.65288067  0.94637658  0.67307285    -0.23400
H1963       H  0.68182903  0.65971274  0.65763318     0.05800
H1964       H  0.68751937  0.64981677  0.59934319     0.09000
H1965       H  0.73891789  0.67110479  0.63645732     0.09000
H1966       H  0.63627365  0.92967612  0.70569693     0.09000
H1967       H  0.68833891  0.94841142  0.67249738     0.09000
H1968       H  0.63134711  0.92134230  0.64591540     0.05700
C1969       C  0.90687280  0.84221053  0.58452854    -0.20100
C1970       C  0.88443380  0.79354521  0.59873506    -0.06600
C1971       C  0.87961816  0.78275711  0.64560628     0.14200
C1972       C  0.89385076  0.82076622  0.67687611    -0.20100
C1973       C  0.91099772  0.86945736  0.66260815    -0.06600
C1974       C  0.92070477  0.87986915  0.61575353     0.14200
C1975       C  0.94735925  0.93070520  0.59765649    -0.23500
H1976       H  0.91339219  0.85101323  0.54865971     0.15500
H1977       H  0.88519056  0.81145294  0.71227666     0.15500
C1978       C  0.85841473  0.73116824  0.66267832    -0.23400
H1979       H  0.97770441  0.93492880  0.57625688     0.05800
H1980       H  0.96083278  0.95791375  0.62505225     0.09000
H1981       H  0.92413705  0.93650676  0.57484614     0.09000
H1982       H  0.88064702  0.71591756  0.65033718     0.09000
H1983       H  0.82110900  0.70857624  0.65010899     0.09000
H1984       H  0.85711862  0.72894700  0.70024729     0.05700
C1985       C  0.58588837  0.89915109  0.31149270    -0.20100
C1986       C  0.54693220  0.90391329  0.32819055    -0.06600
C1987       C  0.54251927  0.90475194  0.37641135     0.14200
C1988       C  0.58058868  0.91192112  0.40348726    -0.20100
C1989       C  0.61153438  0.89681665  0.38786348    -0.06600
C1990       C  0.61548797  0.89115706  0.34130971     0.14200
C1991       C  0.64897383  0.87471675  0.32401191    -0.23500
H1992       H  0.58737049  0.89271184  0.27576488     0.15500
H1993       H  0.57756361  0.91512184  0.43983148     0.15500
C1994       C  0.99686549  0.88530379  0.40405524    -0.23400
H1995       H  0.64287191  0.86512684  0.28780612     0.05800
H1996       H  0.64284567  0.84179744  0.34274539     0.09000
H1997       H  0.68692764  0.90411522  0.32909189     0.09000
H1998       H  0.99597038  0.86272829  0.43347266     0.09000
H1999       H  0.96768386  0.85907739  0.38305000     0.09000
H2000       H  0.99173563  0.91457502  0.41799400     0.05700
C2001       C  0.88202443  0.83340873  0.39795815    -0.20100
C2002       C  0.86559075  0.78298770  0.39399428    -0.06600
C2003       C  0.86176979  0.76408303  0.35057574     0.14200
C2004       C  0.87235927  0.79434336  0.31262540    -0.20100
C2005       C  0.88898210  0.84474117  0.31552287    -0.06600
C2006       C  0.89601586  0.86463530  0.35880025     0.14200
C2007       C  0.92838320  0.91866117  0.36257257    -0.23500
H2008       H  0.88842127  0.84911450  0.43132955     0.15500
H2009       H  0.86521344  0.77779064  0.27958408     0.15500
C2010       C  0.84565068  0.71127795  0.34405580    -0.23400
H2011       H  0.92662643  0.93205706  0.39663894     0.05800
H2012       H  0.92151929  0.93779883  0.33553535     0.09000
H2013       H  0.96588606  0.92903787  0.35392631     0.09000
H2014       H  0.80933587  0.68786862  0.35983656     0.09000
H2015       H  0.87224868  0.70355081  0.36019482     0.09000
H2016       H  0.84350720  0.70197697  0.30769663     0.05700
C2017       C  0.90228240  0.57976098  0.31985586    -0.20100
C2018       C  0.94566575  0.57872564  0.32282112    -0.06600
C2019       C  0.96409500  0.58149922  0.36668687     0.14200
C2020       C  0.94372253  0.59201222  0.40420893    -0.20100
C2021       C  0.90465328  0.59973093  0.39907773    -0.06600
C2022       C  0.88322916  0.59265839  0.35623571     0.14200
C2023       C  0.84446455  0.60443952  0.34537590    -0.23500
H2024       H  0.88951499  0.58212071  0.28684356     0.15500
H2025       H  0.95911636  0.59517701  0.43743103     0.15500
C2026       C  0.50259037  0.57019870  0.37464540    -0.23400
H2027       H  0.81276480  0.57200836  0.33100485     0.05800
H2028       H  0.85851928  0.63359059  0.31898032     0.09000
H2029       H  0.83282682  0.61710757  0.37509386     0.09000
H2030       H  0.53363432  0.60019097  0.39211033     0.09000
H2031       H  0.51438425  0.56247890  0.34218804     0.09000
H2032       H  0.48741958  0.53696549  0.39644805     0.05700
C2033       C  0.64436752  0.66943294  0.39867033    -0.20100
C2034       C  0.61932442  0.69487490  0.39837761    -0.06600
C2035       C  0.59312506  0.69254147  0.35932857     0.14200
C2036       C  0.59137763  0.66339883  0.32318465    -0.20100
C2037       C  0.61538012  0.63698609  0.32292513    -0.06600
C2038       C  0.64663537  0.64498830  0.36038485     0.14200
C2039       C  0.69209661  0.64203062  0.35671134    -0.23500
H2040       H  0.66744855  0.67370576  0.42700334     0.15500
H2041       H  0.57731067  0.66733759  0.29249727     0.15500
C2042       C  0.57087096  0.72413277  0.35334308    -0.23400
H2043       H  0.70343677  0.63609355  0.39013274     0.05800
H2044       H  0.72257115  0.67745061  0.34438331     0.09000
H2045       H  0.68782437  0.61302562  0.33417355     0.09000
H2046       H  0.59813784  0.76249563  0.35999786     0.09000
H2047       H  0.53929543  0.71162308  0.37666179     0.09000
H2048       H  0.55897066  0.72395835  0.31834285     0.05700
C2049       C  0.67659155  0.50790035  0.34754960    -0.20100
C2050       C  0.63671892  0.51465826  0.33942247    -0.06600
C2051       C  0.61977695  0.52893547  0.37716001     0.14200
C2052       C  0.64867193  0.54708831  0.41646997    -0.20100
C2053       C  0.69296305  0.54792424  0.42025365    -0.06600
C2054       C  0.70287689  0.52167049  0.38794697     0.14200
C2055       C  0.74205465  0.50931205  0.39495230    -0.23500
H2056       H  0.69035328  0.49546589  0.32081984     0.15500
H2057       H  0.63799115  0.56312026  0.44303557     0.15500
C2058       C  0.57255750  0.52708242  0.37512905    -0.23400
H2059       H  0.74601128  0.48979662  0.36577359     0.05800
H2060       H  0.73363984  0.48597272  0.42552402     0.09000
H2061       H  0.77706002  0.54239405  0.40076140     0.09000
H2062       H  0.54289704  0.48898890  0.37314792     0.09000
H2063       H  0.57196187  0.54619198  0.34427196     0.09000
H2064       H  0.56642503  0.54357241  0.40549431     0.05700
C2065       C  0.77636032  0.88158303  0.36056955    -0.20100
C2066       C  0.79747776  0.90387888  0.40113326    -0.06600
C2067       C  0.84379263  0.94597248  0.39933662     0.14200
C2068       C  0.86702181  0.96493054  0.35723220    -0.20100
C2069       C  0.84679917  0.94333035  0.31583951    -0.06600
C2070       C  0.79854976  0.90154254  0.31848734     0.14200
C2071       C  0.76530498  0.87983445  0.27883169    -0.23500
H2072       H  0.73985777  0.85032605  0.36150326     0.15500
H2073       H  0.90229914  0.99628586  0.35675756     0.15500
C2074       C  0.86980634  0.97030275  0.44157863    -0.23400
H2075       H  0.78320843  0.89427758  0.24624883     0.05800
H2076       H  0.73534228  0.88753819  0.28140652     0.09000
H2077       H  0.74922355  0.83970751  0.27870589     0.09000
H2078       H  0.87319285  0.94326888  0.46265275     0.09000
H2079       H  0.84981887  0.98528097  0.45955101     0.09000
H2080       H  0.90699887  0.00071106  0.43446687     0.05700
C2081       C  0.89463078  0.54602728  0.89478333    -0.20100
C2082       C  0.87293137  0.57428425  0.89984092    -0.06600
C2083       C  0.85109284  0.58198270  0.86278231     0.14200
C2084       C  0.85538323  0.56613586  0.82075748    -0.20100
C2085       C  0.88671093  0.54786674  0.81237899    -0.06600
C2086       C  0.90338067  0.53398382  0.85097888     0.14200
C2087       C  0.92880144  0.50591152  0.84742028    -0.23500
H2088       H  0.90427830  0.53349097  0.92479204     0.15500
H2089       H  0.83336376  0.56842473  0.79447297     0.15500
C2090       C  0.82053970  0.60469613  0.86871580    -0.23400
H2091       H  0.92856987  0.48930013  0.88064391     0.05800
H2092       H  0.96590969  0.52843089  0.83465447     0.09000
H2093       H  0.91177671  0.47709041  0.82311172     0.09000
H2094       H  0.84121353  0.64040209  0.88522692     0.09000
H2095       H  0.79124548  0.58060790  0.89236640     0.09000
H2096       H  0.80585322  0.60909566  0.83627614     0.05700
C2097       C  0.89594465  0.55715042  0.10067261    -0.20100
C2098       C  0.89751479  0.60097097  0.10677714    -0.06600
C2099       C  0.91547165  0.62645718  0.14703306     0.14200
C2100       C  0.92534850  0.60354329  0.18269754    -0.20100
C2101       C  0.92151263  0.55730412  0.17849913    -0.06600
C2102       C  0.91185657  0.53775067  0.13422204     0.14200
C2103       C  0.93074050  0.50689221  0.11658227    -0.23500
H2104       H  0.88635954  0.54014026  0.06775426     0.15500
H2105       H  0.92635369  0.61747737  0.21581963     0.15500
C2106       C  0.91955382  0.67524624  0.15394045    -0.23400
H2107       H  0.95884454  0.52560273  0.08993351     0.05800
H2108       H  0.90302920  0.97982391  0.09453752     0.09000
H2109       H  0.94597455  0.49485127  0.14392183     0.09000
H2110       H  0.88364720  0.67206593  0.14969491     0.09000
H2111       H  0.94551907  0.70198294  0.12875400     0.09000
H2112       H  0.93289759  0.68952941  0.18821687     0.05700
C2113       C  0.70446883  0.58098992  0.86443935    -0.20100
C2114       C  0.70051589  0.60317372  0.90324967    -0.06600
C2115       C  0.66454891  0.61600912  0.90480390     0.14200
C2116       C  0.63464107  0.60644136  0.86709928    -0.20100
C2117       C  0.64478596  0.59301127  0.82502886    -0.06600
C2118       C  0.68541646  0.58599661  0.82396513     0.14200
C2119       C  0.71904080  0.59823654  0.78347276    -0.23500
H2120       H  0.72833618  0.56701938  0.86290801     0.15500
H2121       H  0.60676743  0.61479138  0.86965333     0.15500
C2122       C  0.65720405  0.63902946  0.94621771    -0.23400
H2123       H  0.73294015  0.57274602  0.78095016     0.05800
H2124       H  0.75105988  0.63515019  0.78778681     0.09000
H2125       H  0.70213394  0.59847931  0.75143586     0.09000
H2126       H  0.68919766  0.67572259  0.95122889     0.09000
H2127       H  0.65163897  0.61586050  0.97659967     0.09000
H2128       H  0.62521421  0.64344659  0.94304187     0.05700
C2129       C  0.91946452  0.83563302  0.87869845    -0.20100
C2130       C  0.90778017  0.78693780  0.87677054    -0.06600
C2131       C  0.90888169  0.76883724  0.83339871     0.14200
C2132       C  0.92456129  0.80009048  0.79491335    -0.20100
C2133       C  0.94346214  0.85096100  0.79743175    -0.06600
C2134       C  0.93720944  0.86752267  0.84043181     0.14200
C2135       C  0.45007309  0.91885864  0.84983501    -0.23500
H2136       H  0.91634958  0.84967730  0.91106727     0.15500
H2137       H  0.92721104  0.78533729  0.76279365     0.15500
C2138       C  0.89187152  0.71614081  0.82654829    -0.23400
H2139       H  0.41618657  0.91735512  0.86016081     0.05800
H2140       H  0.46669535  0.94354903  0.82083621     0.09000
H2141       H  0.47482516  0.93333086  0.87873959     0.09000
H2142       H  0.85251094  0.69562323  0.83385468     0.09000
H2143       H  0.91188840  0.70426452  0.84876163     0.09000
H2144       H  0.89725071  0.70837770  0.79107817     0.05700
C2145       C  0.66091017  0.56873135  0.10800201    -0.20100
C2146       C  0.69308640  0.61688832  0.09254474    -0.06600
C2147       C  0.68112976  0.65271773  0.10349740     0.14200
C2148       C  0.64397201  0.64111447  0.13477442    -0.20100
C2149       C  0.61914042  0.59582719  0.15781448    -0.06600
C2150       C  0.61894751  0.55786911  0.13381912     0.14200
C2151       C  0.57294042  0.52668319  0.10906131    -0.23500
H2152       H  0.66357211  0.53903801  0.09343711     0.15500
H2153       H  0.64662225  0.67183688  0.15117056     0.15500
C2154       C  0.70992794  0.70491453  0.08713408    -0.23400
H2155       H  0.57016354  0.54766087  0.08027199     0.05800
H2156       H  0.54078472  0.51292233  0.13190558     0.09000
H2157       H  0.57370998  0.49655327  0.09268543     0.09000
H2158       H  0.70497883  0.70734648  0.05024933     0.09000
H2159       H  0.74833368  0.72000539  0.09477968     0.09000
H2160       H  0.69945470  0.72856449  0.10495321     0.05700
C2161       C  0.96493182  0.80505849  0.11677097    -0.20100
C2162       C  0.91676389  0.78878805  0.10412638    -0.06600
C2163       C  0.88696943  0.79300629  0.13745039     0.14200
C2164       C  0.90741280  0.81885106  0.17747809    -0.20100
C2165       C  0.95712412  0.84314293  0.18663571    -0.06600
C2166       C  0.98433439  0.82929731  0.15819086     0.14200
C2167       C  0.02689095  0.82661710  0.17636781    -0.23500
H2168       H  0.98665759  0.79534047  0.09595465     0.15500
H2169       H  0.88333982  0.81504537  0.20444880     0.15500
C2170       C  0.83307345  0.76833410  0.13293472    -0.23400
H2171       H  0.55091229  0.83060927  0.14664689     0.05800
H2172       H  0.01357881  0.78990716  0.19163197     0.09000
H2173       H  0.54562795  0.85407400  0.20031200     0.09000
H2174       H  0.81806356  0.72871130  0.12804971     0.09000
H2175       H  0.82443441  0.78503716  0.10407303     0.09000
H2176       H  0.81507254  0.77220726  0.16348885     0.05700
C2177       C  0.55384541  0.66609552  0.92281122    -0.20100
C2178       C  0.59289177  0.71028600  0.90903831    -0.06600
C2179       C  0.61293419  0.71494848  0.86546210     0.14200
C2180       C  0.58819570  0.67701338  0.83450686    -0.20100
C2181       C  0.54555030  0.63317494  0.84640347    -0.06600
C2182       C  0.53379421  0.62653344  0.89383449     0.14200
C2183       C  0.01045665  0.57826643  0.91860968    -0.23500
H2184       H  0.54227298  0.66089973  0.95809576     0.15500
H2185       H  0.60074296  0.68275670  0.80040190     0.15500
C2186       C  0.65932631  0.76016789  0.85144179    -0.23400
H2187       H  0.03693048  0.57861405  0.94289375     0.05800
H2188       H  0.00148107  0.54811068  0.89646995     0.09000
H2189       H  0.97918973  0.57291698  0.93903380     0.09000
H2190       H  0.68883981  0.76494796  0.87410510     0.09000
H2191       H  0.65489373  0.79250590  0.85369032     0.09000
H2192       H  0.67038555  0.75786804  0.81631658     0.05700
C2193       C  0.60681996  0.70616959  0.19752533    -0.20100
C2194       C  0.56721661  0.65790755  0.19022287    -0.06600
C2195       C  0.55456194  0.64639338  0.14489057     0.14200
C2196       C  0.57516165  0.68046066  0.10964621    -0.24100
C2197       C  0.61201470  0.72738817  0.11701606    -0.06600
C2198       C  0.62912786  0.74092359  0.16154743     0.14200
C2199       C  0.66909247  0.79186812  0.17126693    -0.23500
H2200       H  0.61756417  0.71809990  0.23182157     0.15500
H2201       H  0.56304296  0.66939587  0.07525138     0.15500
C2202       C  0.02087861  0.59784060  0.13100659    -0.23400
H2203       H  0.67739301  0.79682527  0.20791341     0.05800
H2204       H  0.65818686  0.81842033  0.16043525     0.09000
H2205       H  0.70257844  0.79979521  0.15260552     0.09000
H2206       H  0.00866538  0.57157157  0.15972270     0.09000
H2207       H  0.03878618  0.58734261  0.10543635     0.09000
H2208       H  0.99257309  0.60119616  0.11338880     0.05700
C2209       C  0.61318517  0.97108804  0.91869111    -0.20100
C2210       C  0.60453886  0.92322732  0.91589745    -0.06600
C2211       C  0.56687496  0.89085639  0.88782700     0.14200
C2212       C  0.54645931  0.90955459  0.85814344    -0.20100
C2213       C  0.56396700  0.95963730  0.85157309    -0.06600
C2214       C  0.58749681  0.98649623  0.89056670     0.14200
C2215       C  0.56585931  0.51056055  0.91566687    -0.23500
H2216       H  0.63407992  0.99351862  0.94660796     0.15500
H2217       H  0.52283610  0.88455516  0.83554631     0.15500
C2218       C  0.54915676  0.83679376  0.88673397    -0.23400
H2219       H  0.53320755  0.48220761  0.93412518     0.05800
H2220       H  0.55482845  0.52874450  0.89066945     0.09000
H2221       H  0.59031457  0.53679330  0.94088213     0.09000
H2222       H  0.53104850  0.81911095  0.91931889     0.09000
H2223       H  0.52202677  0.81789446  0.85996898     0.09000
H2224       H  0.57997593  0.83093182  0.88001824     0.05700
C2225       C  0.82443497  0.92857293  0.81047689    -0.20100
C2226       C  0.84285796  0.89839802  0.79892866    -0.06600
C2227       C  0.82527878  0.85497563  0.82537552     0.14200
C2228       C  0.80108987  0.84997046  0.86684081    -0.20100
C2229       C  0.78711934  0.88360379  0.88006587    -0.06600
C2230       C  0.79640278  0.92175317  0.84954969     0.14200
C2231       C  0.77307180  0.95238537  0.85525936    -0.23500
H2232       H  0.83114927  0.95721026  0.78758880     0.15500
H2233       H  0.79021255  0.81757702  0.88741675     0.15500
C2234       C  0.82350493  0.80995866  0.80752095    -0.23400
H2235       H  0.77866928  0.97554767  0.82498126     0.05800
H2236       H  0.78831017  0.97646165  0.88479218     0.09000
H2237       H  0.73333138  0.92843319  0.85989212     0.09000
H2238       H  0.84658493  0.81749733  0.77708044     0.09000
H2239       H  0.78562143  0.78300061  0.79861639     0.09000
H2240       H  0.83478036  0.79298879  0.83382479     0.05700
C2241       C  0.57720768  0.94069412  0.15586401    -0.20100
C2242       C  0.60871713  0.95422124  0.19271882    -0.06600
C2243       C  0.64596725  0.94206939  0.19084389     0.14200
C2244       C  0.65504955  0.92491823  0.15116816    -0.20100
C2245       C  0.62829478  0.91819769  0.11268575    -0.06600
C2246       C  0.58700457  0.92320317  0.11536106     0.14200
C2247       C  0.55444994  0.91095024  0.07502453    -0.23500
H2248       H  0.54662544  0.94620865  0.15789366     0.15500
H2249       H  0.68342781  0.91648153  0.15054285     0.15500
C2250       C  0.68041129  0.95093072  0.22858025    -0.23400
H2251       H  0.52251487  0.91460925  0.08264455     0.05800
H2252       H  0.54115733  0.87305407  0.06449350     0.09000
H2253       H  0.57500503  0.93552227  0.04607957     0.09000
H2254       H  0.68514827  0.91900987  0.23322280     0.09000
H2255       H  0.66631371  0.95667445  0.26026102     0.09000
H2256       H  0.71646157  0.98304577  0.22038931     0.05700
C2257       C  0.84068858  0.92974230  0.16488777    -0.20100
C2258       C  0.87542750  0.91557436  0.16566960    -0.06600
C2259       C  0.88516127  0.89977372  0.12426122     0.14200
C2260       C  0.85420269  0.89056925  0.08706029    -0.20100
C2261       C  0.81790419  0.90332948  0.08860734    -0.06600
C2262       C  0.81229592  0.92439142  0.12797312     0.14200
C2263       C  0.77223123  0.93546023  0.13385853    -0.23500
H2264       H  0.83011936  0.93806277  0.19580100     0.15500
H2265       H  0.86103998  0.87744582  0.05575758     0.15500
C2266       C  0.93496527  0.90825917  0.11458571    -0.23400
H2267       H  0.76967898  0.94650265  0.16885164     0.05800
H2268       H  0.73774033  0.90178222  0.12640917     0.09000
H2269       H  0.77801433  0.96570646  0.11077128     0.09000
H2270       H  0.93322730  0.87696618  0.09738148     0.09000
H2271       H  0.95676522  0.91738666  0.14573234     0.09000
H2272       H  0.95434330  0.93949167  0.09061545     0.05700
loop_ 
_geom_bond_atom_site_label_1 
_geom_bond_atom_site_label_2 
_geom_bond_distance 
_geom_bond_site_symmetry_2 
_ccdc_geom_bond_type 
Fe1          O17   2.112   1_556  S
Fe1           O7   2.066   1_556  S
Fe1          O14   2.083       .  S
Fe1           O6   2.110       .  S
Fe1          O12   1.942   1_556  S
Fe2           O5   2.070       .  S
Fe2           O9   2.034       .  S
Fe2          O13   2.037   1_554  S
Fe2          O18   2.059   1_554  S
Fe2          O12   1.952       .  S
Fe3          O21   2.065       .  S
Fe3           O8   2.068   1_554  S
Fe3          O15   2.038       .  S
Fe3           O4   2.042   1_554  S
Fe3          O12   1.962       .  S
O4           C11   1.272       .  A
O5           C19   1.271       .  A
O6           C11   1.285       .  A
O7           C10   1.269       .  A
O8           C20   1.267       .  A
O9           C22   1.267       .  A
C10          O15   1.255       .  A
C10         C557   1.477       .  S
C11         C525   1.493       .  S
O13          C16   1.261       .  A
O14          C16   1.269       .  A
C16         C506   1.477       .  S
O17          C22   1.284       .  A
O18          C20   1.265       .  A
C19          O21   1.265       .  A
C19         C493   1.477       .  S
C20         C474   1.465       .  S
C22         C541   1.473       .  S
Fe23         O39   2.097   1_556  S
Fe23         O29   2.054   1_556  S
Fe23         O36   2.109       .  S
Fe23         O28   2.068       .  S
Fe23         O34   1.981       .  S
Fe24         O27   2.044   1_556  S
Fe24         O31   2.100   1_556  S
Fe24         O35   2.100       .  S
Fe24         O40   2.068       .  S
Fe24         O34   1.957       .  S
Fe25         O43   2.065       .  S
Fe25         O30   2.087   1_554  S
Fe25         O37   2.042       .  S
Fe25         O26   2.053   1_554  S
Fe25         O34   1.990   1_554  S
O26          C33   1.266       .  A
O27          C41   1.262       .  A
O28          C33   1.269       .  A
O29          C32   1.267       .  A
O30          C42   1.277       .  A
O31          C44   1.277       .  A
C32          O37   1.268       .  A
C32         C394   1.453       .  S
C33         C378   1.466       .  S
O35          C38   1.271       .  A
O36          C38   1.273       .  A
C38         C426   1.515       .  S
O39          C44   1.275       .  A
O40          C42   1.278       .  A
C41          O43   1.262       .  A
C41         C442   1.495       .  S
C42         C410   1.477       .  S
C44         C458   1.526       .  S
C45          C50   1.494       .  A
C45        C1750   1.499       .  A
C45         N619   1.516       .  S
C46          C47   1.479       .  A
C46        C1749   1.499   1_445  A
C46        N1208   1.514       .  S
C47          C48   1.498   1_545  A
C47          N65   1.508       .  S
C48        C1753   1.481   1_455  A
C48         N626   1.499       .  S
C49          C50   1.482       .  A
C49        C1752   1.482       .  A
C49        N1222   1.518       .  S
C50          N79   1.495       .  S
N51         C613   1.516       .  S
N51          C52   1.400   1_565  A
N51         C623   1.418       .  A
C52         C397   1.494       .  S
C52          C53   1.381       .  A
C53         C622   1.333   1_545  A
C53          H56   1.084       .  S
C54          C55   1.380       .  A
C54         C621   1.332       .  A
C54          H57   1.084       .  S
C55         C365   1.510       .  S
C55         N619   1.418       .  A
N58         C616   1.498       .  S
N58          C59   1.381       .  A
N58         C630   1.398       .  A
C59         C538   1.502       .  S
C59          C60   1.377       .  A
C60         C629   1.343       .  A
C60          H63   1.083       .  S
C61          C62   1.384       .  A
C61         C628   1.343       .  A
C61          H64   1.083       .  S
C62         C346   1.534       .  S
C62         N626   1.398   1_545  A
N65          C69   1.407       .  A
N65          C66   1.399       .  A
C66         C445   1.511       .  S
C66          C67   1.387       .  A
C67          C68   1.328       .  A
C67          H70   1.083       .  S
C68          C69   1.374       .  A
C68          H71   1.080       .  S
C69         C333   1.505       .  S
N72        C1182   1.513       .  S
N72          C73   1.396       .  A
N72        C1212   1.417       .  A
C73         C314   1.487       .  S
C73          C74   1.377       .  A
C74        C1211   1.325       .  A
C74          H77   1.084       .  S
C75          C76   1.381       .  A
C75        C1210   1.325   1_455  A
C75          H78   1.084       .  S
C76         C490   1.508       .  S
C76        N1208   1.417       .  A
N79          C83   1.398       .  A
N79          C80   1.389       .  A
C80         C554   1.476       .  S
C80          C81   1.376       .  A
C81          C82   1.331       .  A
C81          H84   1.084       .  S
C82          C83   1.381       .  A
C82          H85   1.084       .  S
C83         C301   1.498       .  S
N86        C1185   1.518       .  S
N86          C87   1.396   1_655  A
N86        C1226   1.411       .  A
C87         C282   1.491       .  S
C87          C88   1.380   1_455  A
C88        C1225   1.336       .  A
C88          H91   1.084       .  S
C89          C90   1.374       .  A
C89        C1224   1.335       .  A
C89          H92   1.084       .  S
C90         C461   1.513       .  S
C90        N1222   1.411       .  A
Fe93        O109   2.092       .  S
Fe93         O99   2.067       .  S
Fe93        O106   2.059       .  S
Fe93         O98   2.109       .  S
Fe93        O104   1.988       .  S
Fe94         O97   2.102       .  S
Fe94        O101   2.108       .  S
Fe94        O105   2.063       .  S
Fe94        O110   2.096       .  S
Fe94        O104   1.989       .  S
Fe95        O113   2.071       .  S
Fe95        O100   2.074       .  S
Fe95        O107   2.086       .  S
Fe95         O96   2.068       .  S
Fe95        O104   1.982       .  S
O96         C103   1.268       .  A
O97         C111   1.272       .  A
O98         C103   1.274       .  A
O99         C102   1.269       .  A
O100        C112   1.271       .  A
O101        C114   1.282       .  A
C102        O107   1.275       .  A
C102        C317   1.477       .  S
C103        C237   1.501       .  S
O105        C108   1.265       .  A
O106        C108   1.270       .  A
C108        C253   1.489       .  S
O109        C114   1.275       .  A
O110        C112   1.277       .  A
C111        O113   1.268       .  A
C111        C298   1.495       .  S
C112        C266   1.487       .  S
C114        C349   1.513       .  S
Fe115       O131   2.087       .  S
Fe115       O121   2.059       .  S
Fe115       O128   2.059       .  S
Fe115       O120   2.067       .  S
Fe115       O126   1.960       .  S
Fe116       O119   2.119       .  S
Fe116       O123   2.038       .  S
Fe116       O127   2.107       .  S
Fe116       O132   2.031       .  S
Fe116       O126   1.970       .  S
Fe117       O135   2.054       .  S
Fe117       O122   2.083       .  S
Fe117       O129   2.099       .  S
Fe117       O118   2.049       .  S
Fe117       O126   1.946       .  S
O118        C125   1.264       .  A
O119        C133   1.275       .  A
O120        C125   1.268       .  A
O121        C124   1.273       .  A
O122        C134   1.278       .  A
O123        C136   1.264       .  A
C124        O129   1.277       .  A
C124        C189   1.476       .  S
C125        C330   1.491       .  S
O127        C130   1.274       .  A
O128        C130   1.268       .  A
C130        C362   1.489       .  S
O131        C136   1.274       .  A
O132        C134   1.259       .  A
C133        O135   1.266       .  A
C133        C202   1.517       .  S
C134        C285   1.457       .  S
C136        C218   1.465       .  S
C137        C138   1.480       .  A
C137        C710   1.507       .  A
C137        N718   1.507       .  S
C138        C139   1.464       .  A
C138        N178   1.510       .  S
C139       C1276   1.482       .  A
C139       N1307   1.476       .  S
C140       C1275   1.480   1_455  A
C140        C709   1.481       .  A
C140        N143   1.510       .  S
C141        C708   1.480       .  A
C141       C1278   1.472       .  A
C141        N164   1.504       .  S
C142        C705   1.507       .  A
C142       C1277   1.472       .  A
C142        N157   1.502       .  S
N143        C144   1.410       .  A
N143        C715   1.405       .  A
C144        C509   1.507       .  S
C144        C145   1.377       .  A
C145        C714   1.325       .  A
C145        H148   1.082       .  S
C146        C147   1.377   1_565  A
C146        C713   1.325       .  A
C146        H149   1.083       .  S
C147        C250   1.508       .  S
C147        N711   1.406   1_545  A
N150        C705   1.507       .  S
N150        C151   1.381       .  A
N150        C722   1.387       .  A
C151        C381   1.518       .  S
C151        C152   1.396       .  A
C152        C721   1.327       .  A
C152        H155   1.081       .  S
C153        C154   1.368       .  A
C153        C720   1.327       .  A
C153        H156   1.084       .  S
C154        C221   1.477       .  S
C154        N718   1.386       .  A
N157        C158   1.398       .  A
N157       C1297   1.400       .  A
C158        C234   1.538       .  S
C158        C159   1.392       .  A
C159       C1296   1.339       .  A
C159        H162   1.079       .  S
C160        C161   1.373   1_655  A
C160       C1295   1.339       .  A
C160        H163   1.084       .  S
C161        C477   1.507       .  S
C161       N1293   1.401       .  A
N164        C168   1.398       .  A
N164        C165   1.398       .  A
C165        C413   1.483       .  S
C165        C166   1.377       .  A
C166        C167   1.329       .  A
C166        H169   1.083       .  S
C167        C168   1.379       .  A
C167        H170   1.083       .  S
C168        C186   1.491       .  S
N171       C1275   1.476       .  S
N171        C172   1.395   1_655  A
N171       C1311   1.387       .  A
C172        C205   1.523       .  S
C172        C173   1.383       .  A
C173       C1310   1.334       .  A
C173        H176   1.081       .  S
C174        C175   1.382       .  A
C174       C1309   1.334       .  A
C174        H177   1.083       .  S
C175        C429   1.535       .  S
C175       N1307   1.386       .  A
N178        C182   1.392       .  A
N178        C179   1.398       .  A
C179        C522   1.495       .  S
C179        C180   1.372       .  A
C180        C181   1.339       .  A
C180        H183   1.084       .  S
C181        C182   1.385       .  A
C181        H184   1.084       .  S
C182        C269   1.492       .  S
C185        C186   1.409       .  A
C185        C190   1.416       .  A
C185        H192   1.081       .  S
C186        C187   1.436       .  A
C187        C188   1.397       .  A
C187        C194   1.514       .  S
C188        C189   1.387       .  A
C188        H193   1.085       .  S
C189        C190   1.413       .  A
C190        C191   1.505       .  S
C191        H195   1.109       .  S
C191        H196   1.110       .  S
C191        H197   1.109       .  S
C194        H198   1.102       .  S
C194        H199   1.099       .  S
C194        H200   1.111       .  S
C201        C202   1.413       .  A
C201        C206   1.424       .  A
C201        H208   1.083       .  S
C202        C203   1.418       .  A
C203        C204   1.403       .  A
C203        C210   1.501   1_455  S
C204        C205   1.411       .  A
C204        H209   1.081   1_455  S
C205        C206   1.420       .  A
C206        C207   1.501       .  S
C207        H211   1.098       .  S
C207        H212   1.110       .  S
C207        H213   1.105       .  S
C210        H214   1.109   1_655  S
C210        H215   1.109       .  S
C210        H216   1.104       .  S
C217        C218   1.393       .  A
C217        C222   1.401       .  A
C217        H224   1.085       .  S
C218        C219   1.405       .  A
C219        C220   1.399       .  A
C219        C226   1.498       .  S
C220        C221   1.397       .  A
C220        H225   1.076       .  S
C221        C222   1.437       .  A
C222        C223   1.508       .  S
C223        H227   1.104       .  S
C223        H228   1.110       .  S
C223        H229   1.093       .  S
C226        H230   1.106       .  S
C226        H231   1.110       .  S
C226        H232   1.107       .  S
C233        C234   1.419       .  A
C233        C238   1.432       .  A
C233        H240   1.081       .  S
C234        C235   1.438       .  A
C235        C236   1.393       .  A
C235       C1378   1.517       .  S
C236        C237   1.386       .  A
C236        H241   1.074       .  S
C237        C238   1.415       .  A
C238        C239   1.498       .  S
C239        H243   1.110       .  S
C239        H244   1.110       .  S
C239        H245   1.108       .  S
C242       C1371   1.517       .  S
C242        H246   1.098   1_655  S
C242        H247   1.112       .  S
C242        H248   1.110   1_655  S
C249        C250   1.403       .  A
C249        C254   1.413       .  A
C249        H256   1.056       .  S
C250        C251   1.442   1_545  A
C251        C252   1.398   1_565  A
C251        C826   1.513       .  S
C252        C253   1.394       .  A
C252        H257   1.086       .  S
C253        C254   1.414       .  A
C254        C255   1.505       .  S
C255        H259   1.101       .  S
C255        H260   1.108       .  S
C255        H261   1.107       .  S
C258        C819   1.513       .  S
C258        H262   1.090       .  S
C258        H263   1.103       .  S
C258        H264   1.104       .  S
C265        C266   1.397       .  A
C265        C270   1.406       .  A
C265        H272   1.085       .  S
C266        C267   1.413       .  A
C267        C268   1.413       .  A
C267        C274   1.503       .  S
C268        C269   1.415       .  A
C268        H273   1.079       .  S
C269        C270   1.416       .  A
C270        C271   1.487       .  S
C271        H275   1.104       .  S
C271        H276   1.110       .  S
C271        H277   1.089       .  S
C274        H278   1.107       .  S
C274        H279   1.107       .  S
C274        H280   1.111       .  S
C281        C282   1.417       .  A
C281        C286   1.412       .  A
C281        H288   1.083       .  S
C282        C283   1.434       .  A
C283        C284   1.385       .  A
C283       C1426   1.496   1_455  S
C284        C285   1.381       .  A
C284        H289   1.088       .  S
C285        C286   1.402       .  A
C286        C287   1.500       .  S
C287        H291   1.107       .  S
C287        H292   1.106       .  S
C287        H293   1.109       .  S
C290       C1419   1.496       .  S
C290        H294   1.113       .  S
C290        H295   1.089       .  S
C290        H296   1.108       .  S
C297        C298   1.420       .  A
C297        C302   1.430       .  A
C297        H304   1.083       .  S
C298        C299   1.402       .  A
C299        C300   1.394       .  A
C299        C306   1.503       .  S
C300        C301   1.415       .  A
C300        H305   1.084       .  S
C301        C302   1.402       .  A
C302        C303   1.499       .  S
C303        H307   1.109       .  S
C303        H308   1.091       .  S
C303        H309   1.099       .  S
C306        H310   1.111       .  S
C306        H311   1.109       .  S
C306        H312   1.111       .  S
C313        C314   1.409       .  A
C313        C318   1.396       .  A
C313        H320   1.078       .  S
C314        C315   1.413       .  A
C315        C316   1.408       .  A
C315       C1458   1.482       .  S
C316        C317   1.400       .  A
C316        H321   1.085       .  S
C317        C318   1.410       .  A
C318        C319   1.503       .  S
C319        H323   1.110       .  S
C319        H324   1.108       .  S
C319        H325   1.108       .  S
C322       C1451   1.482   1_455  S
C322        H326   1.106       .  S
C322        H327   1.102       .  S
C322        H328   1.110   1_455  S
C329        C330   1.399       .  A
C329        C334   1.403       .  A
C329        H336   1.084       .  S
C330        C331   1.413       .  A
C331        C332   1.405       .  A
C331        C338   1.508       .  S
C332        C333   1.397       .  A
C332        H337   1.050       .  S
C333        C334   1.434       .  A
C334        C335   1.509       .  S
C335        H339   1.102       .  S
C335        H340   1.108       .  S
C335        H341   1.096       .  S
C338        H342   1.105       .  S
C338        H343   1.110       .  S
C338        H344   1.104       .  S
C345        C346   1.420       .  A
C345        C350   1.408       .  A
C345        H352   1.073   1_545  S
C346        C347   1.412       .  A
C347        C348   1.425       .  A
C347        C354   1.485       .  S
C348        C349   1.411       .  A
C348        H353   1.084       .  S
C349        C350   1.412       .  A
C350        C351   1.508       .  S
C351        H355   1.111   1_545  S
C351        H356   1.105   1_545  S
C351        H357   1.099       .  S
C354        H358   1.102   1_545  S
C354        H359   1.097       .  S
C354        H360   1.109       .  S
C361        C362   1.393       .  A
C361        C366   1.402       .  A
C361        H368   1.086       .  S
C362        C363   1.408       .  A
C363        C364   1.408       .  A
C363        C370   1.495       .  S
C364        C365   1.402       .  A
C364        H369   1.063       .  S
C365        C366   1.442       .  A
C366        C367   1.509       .  S
C367        H371   1.086       .  S
C367        H372   1.106       .  S
C367        H373   1.110       .  S
C370        H374   1.107       .  S
C370        H375   1.108       .  S
C370        H376   1.106       .  S
C377        C378   1.396       .  A
C377        C382   1.419       .  A
C377        H384   1.078       .  S
C378        C379   1.389       .  A
C379        C380   1.378       .  A
C379        C386   1.493       .  S
C380        C381   1.414       .  A
C380        H385   1.079       .  S
C381        C382   1.423       .  A
C382        C383   1.488       .  S
C383        H387   1.109   1_545  S
C383        H388   1.093       .  S
C383        H389   1.080   1_545  S
C386        H390   1.105       .  S
C386        H391   1.097       .  S
C386        H392   1.109       .  S
C393        C394   1.383       .  A
C393        C398   1.390       .  A
C393        H400   1.087       .  S
C394        C395   1.401       .  A
C395        C396   1.403       .  A
C395        C402   1.507       .  S
C396        C397   1.420       .  A
C396        H401   1.073       .  S
C397        C398   1.424       .  A
C398        C399   1.487       .  S
C399        H403   1.106       .  S
C399        H405   1.107   1_545  S
C399        H972   1.085   1_545  S
C402        H406   1.110       .  S
C402        H407   1.110       .  S
C402        H408   1.111       .  S
H404        C967   1.084       .  S
C409        C410   1.391       .  A
C409        C414   1.390       .  A
C409        H416   1.063       .  S
C410        C411   1.403       .  A
C411        C412   1.407       .  A
C411        C418   1.509       .  S
C412        C413   1.405       .  A
C412        H417   1.054       .  S
C413        C414   1.428       .  A
C414        C415   1.513       .  S
C415        H419   1.108       .  S
C415        H420   1.111       .  S
C415        H421   1.097       .  S
C418        H422   1.109       .  S
C418        H423   1.111       .  S
C418        H424   1.107       .  S
C425        C426   1.399       .  A
C425        C430   1.419       .  A
C425        H432   1.085       .  S
C426        C427   1.418       .  A
C427        C428   1.412       .  A
C427        C434   1.493       .  S
C428        C429   1.415       .  A
C428        H433   1.084       .  S
C429        C430   1.431       .  A
C430       C1567   1.483       .  S
C431       C1566   1.482       .  S
C431        H435   1.102       .  S
C431        H436   1.091       .  S
C431        H437   1.104       .  S
C434        H438   1.107       .  S
C434        H439   1.109       .  S
C434        H440   1.111       .  S
C441        C442   1.414       .  A
C441        C446   1.419       .  A
C441        H448   1.084       .  S
C442        C443   1.414       .  A
C443        C444   1.392       .  A
C443        C450   1.508       .  S
C444        C445   1.410       .  A
C444        H449   1.059       .  S
C445        C446   1.404       .  A
C446        C447   1.498       .  S
C447        H451   1.108       .  S
C447        H452   1.111       .  S
C447        H453   1.090   1_545  S
C450        H454   1.110       .  S
C450        H455   1.099       .  S
C450        H456   1.102       .  S
C457        C458   1.412       .  A
C457        C462   1.423       .  A
C457        H464   1.083       .  S
C458        C459   1.420       .  A
C459        C460   1.413       .  A
C459        C466   1.501       .  S
C460        C461   1.405       .  A
C460        H465   1.067       .  S
C461        C462   1.430       .  A
C462        C463   1.511       .  S
C463        H468   1.110       .  S
C463       H1603   1.108       .  S
C463       H1605   1.107       .  S
C466        H470   1.110       .  S
C466        H471   1.109       .  S
C466        H472   1.108       .  S
H467       C1599   1.108       .  S
H469       C1599   1.107       .  S
C473        C474   1.381       .  A
C473        C478   1.394       .  A
C473        H480   1.087       .  S
C474        C475   1.408       .  A
C475        C476   1.411       .  A
C475        C482   1.505       .  S
C476        C477   1.412       .  A
C476        H481   1.064       .  S
C477        C478   1.435       .  A
C478       C1615   1.491       .  S
C479       C1614   1.492       .  S
C479        H483   1.111       .  S
C479        H484   1.081       .  S
C479        H485   1.101       .  S
C482        H486   1.110       .  S
C482        H487   1.110       .  S
C482        H488   1.109       .  S
C489        C490   1.433       .  A
C489        C494   1.425       .  A
C489        H496   1.082       .  S
C490        C491   1.400       .  A
C491        C492   1.392       .  A
C491       C1634   1.438       .  S
C492        C493   1.378       .  A
C492        H497   1.088       .  S
C493        C494   1.415       .  A
C494        C495   1.505       .  S
C495        H499   1.111       .  S
C495        H500   1.111       .  S
C495        H501   1.110       .  S
C498       C1627   1.438       .  S
C498        H502   1.105       .  S
C498        H503   1.098       .  S
C498        H504   1.100       .  S
C505        C506   1.405       .  A
C505        C510   1.419       .  A
C505        H512   1.084       .  S
C506        C507   1.406       .  A
C507        C508   1.394       .  A
C507        C514   1.516       .  S
C508        C509   1.408       .  A
C508        H513   1.029       .  S
C509        C510   1.417       .  A
C510       C1079   1.486       .  S
C511       C1078   1.488   1_545  S
C511        H515   1.110   1_545  S
C511        H516   1.102       .  S
C511        H517   1.106       .  S
C514        H518   1.109       .  S
C514        H519   1.110       .  S
C514        H520   1.110       .  S
C521        C522   1.401       .  A
C521        C526   1.403       .  A
C521        H528   1.058       .  S
C522        C523   1.422       .  A
C523        C524   1.408       .  A
C523        C530   1.505       .  S
C524        C525   1.409       .  A
C524        H529   1.084       .  S
C525        C526   1.408       .  A
C526        C527   1.509       .  S
C527        H531   1.108       .  S
C527        H532   1.108       .  S
C527        H533   1.111       .  S
C530        H534   1.104       .  S
C530        H535   1.111       .  S
C530        H536   1.104       .  S
C537        C538   1.406       .  A
C537        C542   1.424       .  A
C537        H544   1.080       .  S
C538        C539   1.428       .  A
C539        C540   1.387       .  A
C539        C546   1.501       .  S
C540        C541   1.380       .  A
C540        H545   1.068       .  S
C541        C542   1.411       .  A
C542        C543   1.509       .  S
C543        H547   1.108       .  S
C543        H548   1.106       .  S
C543        H549   1.111       .  S
C546        H550   1.108       .  S
C546        H551   1.094       .  S
C546        H552   1.110       .  S
C553        C554   1.396       .  A
C553        C558   1.383       .  A
C553        H560   1.051       .  S
C554        C555   1.419       .  A
C555        C556   1.418       .  A
C555        C562   1.501       .  S
C556        C557   1.413       .  A
C556        H561   1.084       .  S
C557        C558   1.403       .  A
C558        C559   1.500       .  S
C559        H563   1.111       .  S
C559        H564   1.108       .  S
C559        H565   1.110       .  S
C562        H566   1.099       .  S
C562        H567   1.108       .  S
C562        H568   1.109       .  S
Fe569       O585   2.108   1_556  S
Fe569       O575   2.066   1_556  S
Fe569       O582   2.088       .  S
Fe569       O574   2.105       .  S
Fe569       O580   1.946   1_556  S
Fe570       O573   2.068       .  S
Fe570       O577   2.032       .  S
Fe570       O581   2.037   1_554  S
Fe570       O586   2.058   1_554  S
Fe570       O580   1.956       .  S
Fe571       O589   2.068       .  S
Fe571       O576   2.068   1_554  S
Fe571       O583   2.036       .  S
Fe571       O572   2.047   1_554  S
Fe571       O580   1.966       .  S
O572        C579   1.273       .  A
O573        C587   1.270       .  A
O574        C579   1.284       .  A
O575        C578   1.269       .  A
O576        C588   1.267       .  A
O577        C590   1.266       .  A
C578        O583   1.255       .  A
C578       C1125   1.475       .  S
C579       C1093   1.493       .  S
O581        C584   1.261       .  A
O582        C584   1.270       .  A
C584       C1074   1.482       .  S
O585        C590   1.283       .  A
O586        C588   1.266       .  A
C587        O589   1.265       .  A
C587       C1061   1.478       .  S
C588       C1042   1.465       .  S
C590       C1109   1.472       .  S
Fe591       O607   2.095   1_556  S
Fe591       O597   2.056   1_556  S
Fe591       O604   2.114       .  S
Fe591       O596   2.065       .  S
Fe591       O602   1.982       .  S
Fe592       O595   2.050   1_556  S
Fe592       O599   2.095   1_556  S
Fe592       O603   2.101       .  S
Fe592       O608   2.062       .  S
Fe592       O602   1.958       .  S
Fe593       O611   2.064       .  S
Fe593       O598   2.085   1_554  S
Fe593       O605   2.043       .  S
Fe593       O594   2.055   1_554  S
Fe593       O602   1.991   1_554  S
O594        C601   1.266       .  A
O595        C609   1.263       .  A
O596        C601   1.269       .  A
O597        C600   1.268       .  A
O598        C610   1.277       .  A
O599        C612   1.276       .  A
C600        O605   1.268       .  A
C600        C962   1.453       .  S
C601        C946   1.464       .  S
O603        C606   1.271       .  A
O604        C606   1.274       .  A
C606        C994   1.518       .  S
O607        C612   1.275       .  A
O608        C610   1.276       .  A
C609        O611   1.261       .  A
C609       C1010   1.496       .  S
C610        C978   1.474       .  S
C612       C1026   1.523       .  S
C613       C1182   1.498   1_565  A
C613        C618   1.493       .  A
C614       C1181   1.499   1_455  A
C614        C615   1.478       .  A
C614       N1776   1.514       .  S
C615        C616   1.499       .  A
C615        N633   1.508       .  S
C616       C1185   1.481   1_455  A
C617       C1184   1.482       .  A
C617        C618   1.481       .  A
C617       N1790   1.518       .  S
C618        N647   1.494       .  S
N619        C620   1.400       .  A
C620        C965   1.493       .  S
C620        C621   1.382       .  A
C621        H624   1.084       .  S
C622        C623   1.381       .  A
C622        H625   1.084       .  S
C623        C933   1.513       .  S
N626        C627   1.381       .  A
C627       C1106   1.503       .  S
C627        C628   1.377   1_565  A
C628        H631   1.083       .  S
C629        C630   1.384       .  A
C629        H632   1.083       .  S
C630        C914   1.533       .  S
N633        C637   1.407       .  A
N633        C634   1.400       .  A
C634       C1013   1.512       .  S
C634        C635   1.388       .  A
C635        C636   1.328       .  A
C635        H638   1.083       .  S
C636        C637   1.374       .  A
C636        H639   1.080       .  S
C637        C901   1.505       .  S
N640       C1750   1.514       .  S
N640       C1780   1.418       .  A
N640        C641   1.396       .  A
C641        C882   1.487       .  S
C641        C642   1.377       .  A
C642       C1779   1.325       .  A
C642        H645   1.084       .  S
C643       C1778   1.325   1_455  A
C643        C644   1.381       .  A
C643        H646   1.084       .  S
C644       C1058   1.509       .  S
C644       N1776   1.418       .  A
N647        C651   1.397       .  A
N647        C648   1.387       .  A
C648       C1122   1.474       .  S
C648        C649   1.377       .  A
C649        C650   1.331       .  A
C649        H652   1.084       .  S
C650        C651   1.382       .  A
C650        H653   1.084       .  S
C651        C869   1.498       .  S
N654       C1753   1.516       .  S
N654       C1794   1.409       .  A
N654        C655   1.394   1_655  A
C655        C850   1.491       .  S
C655        C656   1.381   1_455  A
C656       C1793   1.337       .  A
C656        H659   1.084       .  S
C657       C1792   1.335       .  A
C657        C658   1.374       .  A
C657        H660   1.084       .  S
C658       C1029   1.510       .  S
C658       N1790   1.410       .  A
Fe661       O677   2.088       .  S
Fe661       O667   2.070       .  S
Fe661       O674   2.059       .  S
Fe661       O666   2.105       .  S
Fe661       O672   1.988       .  S
Fe662       O665   2.099       .  S
Fe662       O669   2.107       .  S
Fe662       O673   2.062       .  S
Fe662       O678   2.094       .  S
Fe662       O672   1.989       .  S
Fe663       O681   2.077       .  S
Fe663       O668   2.072       .  S
Fe663       O675   2.089       .  S
Fe663       O664   2.075       .  S
Fe663       O672   1.981       .  S
O664        C671   1.269       .  A
O665        C679   1.272       .  A
O666        C671   1.272       .  A
O667        C670   1.270       .  A
O668        C680   1.271       .  A
O669        C682   1.281       .  A
C670        O675   1.276       .  A
C670        C885   1.479       .  S
C671        C805   1.502       .  S
O673        C676   1.265       .  A
O674        C676   1.270       .  A
C676        C821   1.489       .  S
O677        C682   1.274       .  A
O678        C680   1.276       .  A
C679        O681   1.269       .  A
C679        C866   1.496       .  S
C680        C834   1.484       .  S
C682        C917   1.511       .  S
Fe683       O699   2.086       .  S
Fe683       O689   2.063       .  S
Fe683       O696   2.065       .  S
Fe683       O688   2.064       .  S
Fe683       O694   1.961       .  S
Fe684       O687   2.115       .  S
Fe684       O691   2.041       .  S
Fe684       O695   2.106       .  S
Fe684       O700   2.033       .  S
Fe684       O694   1.971       .  S
Fe685       O703   2.052       .  S
Fe685       O690   2.080       .  S
Fe685       O697   2.092       .  S
Fe685       O686   2.046       .  S
Fe685       O694   1.951       .  S
O686        C693   1.263       .  A
O687        C701   1.274       .  A
O688        C693   1.268       .  A
O689        C692   1.274       .  A
O690        C702   1.277       .  A
O691        C704   1.265       .  A
C692        O697   1.275       .  A
C692        C757   1.474       .  S
C693        C898   1.490       .  S
O695        C698   1.273       .  A
O696        C698   1.269       .  A
C698        C930   1.491       .  S
O699        C704   1.274       .  A
O700        C702   1.260       .  A
C701        O703   1.266       .  A
C701        C770   1.516       .  S
C702        C853   1.456       .  S
C704        C786   1.467       .  S
C705        C706   1.479   1_545  A
C706        C707   1.464       .  A
C706        N746   1.510       .  S
C707       C1844   1.480   1_565  A
C707       N1875   1.475       .  S
C708       C1843   1.480   1_445  A
C708        N711   1.511   1_545  S
C709       C1846   1.471       .  A
C709        N732   1.504       .  S
C710       C1845   1.471       .  A
C710        N725   1.502       .  S
N711        C712   1.410       .  A
C712       C1077   1.507       .  S
C712        C713   1.377       .  A
C713        H716   1.082       .  S
C714        C715   1.377       .  A
C714        H717   1.083       .  S
C715        C818   1.507       .  S
N718        C719   1.382       .  A
C719        C949   1.519       .  S
C719        C720   1.397       .  A
C720        H723   1.081       .  S
C721        C722   1.369       .  A
C721        H724   1.084       .  S
C722        C789   1.479   1_545  S
N725       C1865   1.399       .  A
N725        C726   1.398       .  A
C726        C802   1.539       .  S
C726        C727   1.392       .  A
C727       C1864   1.340       .  A
C727        H730   1.078       .  S
C728       C1863   1.340       .  A
C728        C729   1.373   1_655  A
C728        H731   1.084       .  S
C729       C1045   1.507       .  S
C729       N1861   1.401       .  A
N732        C736   1.398       .  A
N732        C733   1.397       .  A
C733        C981   1.480       .  S
C733        C734   1.377       .  A
C734        C735   1.327       .  A
C734        H737   1.083       .  S
C735        C736   1.379       .  A
C735        H738   1.083       .  S
C736        C754   1.489       .  S
N739       C1843   1.476       .  S
N739       C1879   1.387       .  A
N739        C740   1.395   1_655  A
C740        C773   1.521       .  S
C740        C741   1.383       .  A
C741       C1878   1.333       .  A
C741        H744   1.081       .  S
C742       C1877   1.333       .  A
C742        C743   1.382       .  A
C742        H745   1.084       .  S
C743        C997   1.536       .  S
C743       N1875   1.386       .  A
N746        C750   1.390       .  A
N746        C747   1.398       .  A
C747       C1090   1.494       .  S
C747        C748   1.372       .  A
C748        C749   1.339       .  A
C748        H751   1.084       .  S
C749        C750   1.385       .  A
C749        H752   1.084       .  S
C750        C837   1.490       .  S
C753        C754   1.408       .  A
C753        C758   1.415       .  A
C753        H760   1.081       .  S
C754        C755   1.437       .  A
C755        C756   1.396       .  A
C755        C762   1.515       .  S
C756        C757   1.387       .  A
C756        H761   1.085       .  S
C757        C758   1.412       .  A
C758        C759   1.504       .  S
C759        H763   1.109       .  S
C759        H764   1.110       .  S
C759        H765   1.109       .  S
C762        H766   1.102       .  S
C762        H767   1.100       .  S
C762        H768   1.111       .  S
C769        C770   1.413       .  A
C769        C774   1.423       .  A
C769        H776   1.084       .  S
C770        C771   1.417       .  A
C771        C772   1.402       .  A
C771        C778   1.500   1_455  S
C772        C773   1.410       .  A
C772        H777   1.081   1_455  S
C773        C774   1.420       .  A
C774        C775   1.501       .  S
C775        H779   1.098   1_565  S
C775        H780   1.110   1_565  S
C775        H781   1.105       .  S
C778        H782   1.109   1_655  S
C778        H783   1.109       .  S
C778        H784   1.104       .  S
C785        C786   1.393       .  A
C785        C790   1.402       .  A
C785        H792   1.085       .  S
C786        C787   1.405       .  A
C787        C788   1.400       .  A
C787        C794   1.498       .  S
C788        C789   1.396       .  A
C788        H793   1.075       .  S
C789        C790   1.437       .  A
C790        C791   1.508       .  S
C791        H795   1.105       .  S
C791        H796   1.110       .  S
C791        H797   1.093       .  S
C794        H798   1.106       .  S
C794        H799   1.110       .  S
C794        H800   1.107       .  S
C801        C802   1.419       .  A
C801        C806   1.432       .  A
C801        H808   1.081       .  S
C802        C803   1.439       .  A
C803        C804   1.394       .  A
C803       C1946   1.517       .  S
C804        C805   1.385       .  A
C804        H809   1.073       .  S
C805        C806   1.415       .  A
C806        C807   1.498       .  S
C807        H811   1.110       .  S
C807        H812   1.109       .  S
C807        H813   1.107       .  S
C810       C1939   1.516       .  S
C810        H814   1.097   1_655  S
C810        H815   1.111       .  S
C810        H816   1.109   1_655  S
C817        C818   1.403       .  A
C817        C822   1.414       .  A
C817        H824   1.055       .  S
C818        C819   1.441       .  A
C819        C820   1.396       .  A
C820        C821   1.394       .  A
C820        H825   1.085       .  S
C821        C822   1.414       .  A
C822        C823   1.506       .  S
C823        H827   1.101       .  S
C823        H828   1.108       .  S
C823        H829   1.107       .  S
C826        H830   1.091       .  S
C826        H831   1.104       .  S
C826        H832   1.104       .  S
C833        C834   1.396       .  A
C833        C838   1.405       .  A
C833        H840   1.085       .  S
C834        C835   1.412       .  A
C835        C836   1.412       .  A
C835        C842   1.504       .  S
C836        C837   1.415       .  A
C836        H841   1.079       .  S
C837        C838   1.415       .  A
C838        C839   1.487       .  S
C839        H843   1.104       .  S
C839        H844   1.110       .  S
C839        H845   1.089       .  S
C842        H846   1.106       .  S
C842        H847   1.107       .  S
C842        H848   1.111       .  S
C849        C850   1.417       .  A
C849        C854   1.411       .  A
C849        H856   1.083       .  S
C850        C851   1.434       .  A
C851        C852   1.385       .  A
C851       C1994   1.495   1_455  S
C852        C853   1.380       .  A
C852        H857   1.088       .  S
C853        C854   1.402       .  A
C854        C855   1.499       .  S
C855        H859   1.107       .  S
C855        H860   1.105       .  S
C855        H861   1.109       .  S
C858       C1987   1.496       .  S
C858        H862   1.113       .  S
C858        H863   1.089       .  S
C858        H864   1.108       .  S
C865        C866   1.420       .  A
C865        C870   1.431       .  A
C865        H872   1.083       .  S
C866        C867   1.402       .  A
C867        C868   1.393       .  A
C867        C874   1.502       .  S
C868        C869   1.415       .  A
C868        H873   1.084       .  S
C869        C870   1.402       .  A
C870        C871   1.499       .  S
C871        H875   1.109       .  S
C871        H876   1.091       .  S
C871        H877   1.099       .  S
C874        H878   1.110       .  S
C874        H879   1.108       .  S
C874        H880   1.111       .  S
C881        C882   1.410       .  A
C881        C886   1.397       .  A
C881        H888   1.077       .  S
C882        C883   1.413       .  A
C883        C884   1.409       .  A
C883       C2026   1.484       .  S
C884        C885   1.401       .  A
C884        H889   1.085       .  S
C885        C886   1.410       .  A
C886        C887   1.503       .  S
C887        H891   1.110       .  S
C887        H892   1.109       .  S
C887        H893   1.108       .  S
C890       C2019   1.484   1_455  S
C890        H894   1.106       .  S
C890        H895   1.103       .  S
C890        H896   1.110   1_455  S
C897        C898   1.399       .  A
C897        C902   1.402       .  A
C897        H904   1.084       .  S
C898        C899   1.413       .  A
C899        C900   1.404       .  A
C899        C906   1.508       .  S
C900        C901   1.397       .  A
C900        H905   1.050       .  S
C901        C902   1.435       .  A
C902        C903   1.509       .  S
C903        H907   1.102       .  S
C903        H908   1.109       .  S
C903        H909   1.096       .  S
C906        H910   1.105       .  S
C906        H911   1.110       .  S
C906        H912   1.103       .  S
C913        C914   1.420       .  A
C913        C918   1.407       .  A
C913        H920   1.074       .  S
C914        C915   1.412       .  A
C915        C916   1.424       .  A
C915        C922   1.485       .  S
C916        C917   1.410       .  A
C916        H921   1.084       .  S
C917        C918   1.411       .  A
C918        C919   1.508       .  S
C919        H923   1.111       .  S
C919        H924   1.105       .  S
C919        H925   1.099       .  S
C922        H926   1.101       .  S
C922        H927   1.097       .  S
C922        H928   1.109       .  S
C929        C930   1.393       .  A
C929        C934   1.403       .  A
C929        H936   1.086       .  S
C930        C931   1.409       .  A
C931        C932   1.409       .  A
C931        C938   1.495       .  S
C932        C933   1.402       .  A
C932        H937   1.064       .  S
C933        C934   1.442       .  A
C934        C935   1.509       .  S
C935        H939   1.088       .  S
C935        H940   1.106       .  S
C935        H941   1.110       .  S
C938        H942   1.107       .  S
C938        H943   1.108       .  S
C938        H944   1.107       .  S
C945        C946   1.395       .  A
C945        C950   1.420       .  A
C945        H952   1.079       .  S
C946        C947   1.389       .  A
C947        C948   1.377       .  A
C947        C954   1.493       .  S
C948        C949   1.413       .  A
C948        H953   1.079       .  S
C949        C950   1.422       .  A
C950        C951   1.486       .  S
C951        H955   1.109       .  S
C951        H956   1.092       .  S
C951        H957   1.080       .  S
C954        H958   1.105       .  S
C954        H959   1.097       .  S
C954        H960   1.109       .  S
C961        C962   1.383       .  A
C961        C966   1.391       .  A
C961        H968   1.087       .  S
C962        C963   1.400       .  A
C963        C964   1.403       .  A
C963        C970   1.507       .  S
C964        C965   1.421       .  A
C964        H969   1.073       .  S
C965        C966   1.423       .  A
C966        C967   1.486       .  S
C967        H971   1.106       .  S
C967        H973   1.107       .  S
C970        H974   1.111       .  S
C970        H975   1.110       .  S
C970        H976   1.111       .  S
C977        C978   1.391       .  A
C977        C982   1.390       .  A
C977        H984   1.064       .  S
C978        C979   1.404       .  A
C979        C980   1.405       .  A
C979        C986   1.509       .  S
C980        C981   1.404       .  A
C980        H985   1.055       .  S
C981        C982   1.428       .  A
C982        C983   1.514       .  S
C983        H987   1.108       .  S
C983        H988   1.111       .  S
C983        H989   1.097       .  S
C986        H990   1.109       .  S
C986        H991   1.110       .  S
C986        H992   1.107       .  S
C993        C994   1.400       .  A
C993        C998   1.420       .  A
C993       H1000   1.085       .  S
C994        C995   1.418       .  A
C995        C996   1.413       .  A
C995       C1002   1.494       .  S
C996        C997   1.415       .  A
C996       H1001   1.085       .  S
C997        C998   1.431       .  A
C998       C2135   1.484       .  S
C999       C2134   1.484       .  S
C999       H1003   1.103       .  S
C999       H1004   1.091       .  S
C999       H1005   1.104       .  S
C1002      H1006   1.106       .  S
C1002      H1007   1.110       .  S
C1002      H1008   1.111       .  S
C1009      C1010   1.414       .  A
C1009      C1014   1.420       .  A
C1009      H1016   1.084       .  S
C1010      C1011   1.413       .  A
C1011      C1012   1.392       .  A
C1011      C1018   1.507       .  S
C1012      C1013   1.409       .  A
C1012      H1017   1.059       .  S
C1013      C1014   1.404       .  A
C1014      C1015   1.498       .  S
C1015      H1019   1.108       .  S
C1015      H1020   1.111       .  S
C1015      H1021   1.090       .  S
C1018      H1022   1.110       .  S
C1018      H1023   1.097       .  S
C1018      H1024   1.102       .  S
C1025      C1026   1.411       .  A
C1025      C1030   1.422       .  A
C1025      H1032   1.083       .  S
C1026      C1027   1.420       .  A
C1027      C1028   1.411       .  A
C1027      C1034   1.500       .  S
C1028      C1029   1.405       .  A
C1028      H1033   1.068       .  S
C1029      C1030   1.430       .  A
C1030      C1031   1.511       .  S
C1031      H2171   1.108       .  S
C1031      H1036   1.110       .  S
C1031      H2173   1.107       .  S
C1034      H1038   1.110       .  S
C1034      H1039   1.109       .  S
C1034      H1040   1.109       .  S
H1035      C2167   1.108       .  S
H1037      C2167   1.107       .  S
C1041      C1042   1.382       .  A
C1041      C1046   1.395       .  A
C1041      H1048   1.087       .  S
C1042      C1043   1.408       .  A
C1043      C1044   1.410       .  A
C1043      C1050   1.505       .  S
C1044      C1045   1.411       .  A
C1044      H1049   1.063       .  S
C1045      C1046   1.435       .  A
C1046      C2183   1.491       .  S
C1047      C2182   1.489       .  S
C1047      H1051   1.111       .  S
C1047      H1052   1.082       .  S
C1047      H1053   1.101       .  S
C1050      H1054   1.110       .  S
C1050      H1055   1.110       .  S
C1050      H1056   1.109       .  S
C1057      C1058   1.434       .  A
C1057      C1062   1.426       .  A
C1057      H1064   1.082       .  S
C1058      C1059   1.400       .  A
C1059      C1060   1.392       .  A
C1059      C2202   1.438       .  S
C1060      C1061   1.378       .  A
C1060      H1065   1.087       .  S
C1061      C1062   1.416       .  A
C1062      C1063   1.505       .  S
C1063      H1067   1.111       .  S
C1063      H1068   1.111       .  S
C1063      H1069   1.110       .  S
C1066      C2195   1.437       .  S
C1066      H1070   1.105       .  S
C1066      H1071   1.097       .  S
C1066      H1072   1.100       .  S
C1073      C1074   1.407       .  A
C1073      C1078   1.421       .  A
C1073      H1080   1.084       .  S
C1074      C1075   1.407       .  A
C1075      C1076   1.394       .  A
C1075      C1082   1.516       .  S
C1076      C1077   1.407       .  A
C1076      H1081   1.028       .  S
C1077      C1078   1.416       .  A
C1079      H1083   1.110       .  S
C1079      H1084   1.100       .  S
C1079      H1085   1.107       .  S
C1082      H1086   1.109       .  S
C1082      H1087   1.111       .  S
C1082      H1088   1.110       .  S
C1089      C1090   1.401       .  A
C1089      C1094   1.402       .  A
C1089      H1096   1.060       .  S
C1090      C1091   1.422       .  A
C1091      C1092   1.408       .  A
C1091      C1098   1.505       .  S
C1092      C1093   1.409       .  A
C1092      H1097   1.084       .  S
C1093      C1094   1.409       .  A
C1094      C1095   1.509       .  S
C1095      H1099   1.108       .  S
C1095      H1100   1.108       .  S
C1095      H1101   1.111       .  S
C1098      H1102   1.104       .  S
C1098      H1103   1.111       .  S
C1098      H1104   1.104       .  S
C1105      C1106   1.406       .  A
C1105      C1110   1.423       .  A
C1105      H1112   1.080       .  S
C1106      C1107   1.429       .  A
C1107      C1108   1.387       .  A
C1107      C1114   1.500       .  S
C1108      C1109   1.380       .  A
C1108      H1113   1.070       .  S
C1109      C1110   1.411       .  A
C1110      C1111   1.509       .  S
C1111      H1115   1.107       .  S
C1111      H1116   1.106       .  S
C1111      H1117   1.111       .  S
C1114      H1118   1.108       .  S
C1114      H1119   1.093       .  S
C1114      H1120   1.111       .  S
C1121      C1122   1.396       .  A
C1121      C1126   1.382       .  A
C1121      H1128   1.053       .  S
C1122      C1123   1.419       .  A
C1123      C1124   1.417       .  A
C1123      C1130   1.503       .  S
C1124      C1125   1.413       .  A
C1124      H1129   1.084       .  S
C1125      C1126   1.403       .  A
C1126      C1127   1.501       .  S
C1127      H1131   1.111       .  S
C1127      H1132   1.108       .  S
C1127      H1133   1.110       .  S
C1130      H1134   1.099       .  S
C1130      H1135   1.109       .  S
C1130      H1136   1.109       .  S
Fe1137     O1153   2.114   1_556  S
Fe1137     O1143   2.066   1_556  S
Fe1137     O1150   2.083       .  S
Fe1137     O1142   2.112       .  S
Fe1137     O1148   1.941   1_556  S
Fe1138     O1141   2.070       .  S
Fe1138     O1145   2.033       .  S
Fe1138     O1149   2.040   1_554  S
Fe1138     O1154   2.057   1_554  S
Fe1138     O1148   1.954       .  S
Fe1139     O1157   2.063       .  S
Fe1139     O1144   2.069   1_554  S
Fe1139     O1151   2.040       .  S
Fe1139     O1140   2.043   1_554  S
Fe1139     O1148   1.963       .  S
O1140      C1147   1.271       .  A
O1141      C1155   1.271       .  A
O1142      C1147   1.285       .  A
O1143      C1146   1.269       .  A
O1144      C1156   1.267       .  A
O1145      C1158   1.266       .  A
C1146      O1151   1.256       .  A
C1146      C1693   1.478       .  S
C1147      C1661   1.494       .  S
O1149      C1152   1.262       .  A
O1150      C1152   1.270       .  A
C1152      C1642   1.479       .  S
O1153      C1158   1.284       .  A
O1154      C1156   1.265       .  A
C1155      O1157   1.264       .  A
C1155      C1629   1.476       .  S
C1156      C1610   1.465       .  S
C1158      C1677   1.474       .  S
Fe1159     O1175   2.101   1_556  S
Fe1159     O1165   2.051   1_556  S
Fe1159     O1172   2.108       .  S
Fe1159     O1164   2.072       .  S
Fe1159     O1170   1.980       .  S
Fe1160     O1163   2.045   1_556  S
Fe1160     O1167   2.095   1_556  S
Fe1160     O1171   2.102       .  S
Fe1160     O1176   2.063       .  S
Fe1160     O1170   1.957       .  S
Fe1161     O1179   2.065       .  S
Fe1161     O1166   2.086   1_554  S
Fe1161     O1173   2.043       .  S
Fe1161     O1162   2.052   1_554  S
Fe1161     O1170   1.989   1_554  S
O1162      C1169   1.266       .  A
O1163      C1177   1.262       .  A
O1164      C1169   1.270       .  A
O1165      C1168   1.267       .  A
O1166      C1178   1.277       .  A
O1167      C1180   1.276       .  A
C1168      O1173   1.268       .  A
C1168      C1530   1.452       .  S
C1169      C1514   1.467       .  S
O1171      C1174   1.272       .  A
O1172      C1174   1.273       .  A
C1174      C1562   1.516       .  S
O1175      C1180   1.276       .  A
O1176      C1178   1.277       .  A
C1177      O1179   1.262       .  A
C1177      C1578   1.495       .  S
C1178      C1546   1.474       .  S
C1180      C1594   1.526       .  S
C1181      C1186   1.493       .  A
C1181      N1755   1.516       .  S
C1182      C1183   1.478       .  A
C1183      C1184   1.499   1_545  A
C1183      N1201   1.508       .  S
C1184      N1762   1.499       .  S
C1185      C1186   1.482       .  A
C1186      N1215   1.495       .  S
N1187      C1749   1.516       .  S
N1187      C1759   1.418       .  A
N1187      C1188   1.400   1_565  A
C1188      C1533   1.493       .  S
C1188      C1189   1.382       .  A
C1189      C1758   1.332   1_545  A
C1189      H1192   1.084       .  S
C1190      C1757   1.332       .  A
C1190      C1191   1.381       .  A
C1190      H1193   1.084       .  S
C1191      C1501   1.512       .  S
C1191      N1755   1.418       .  A
N1194      C1752   1.499       .  S
N1194      C1766   1.398       .  A
N1194      C1195   1.381       .  A
C1195      C1674   1.502       .  S
C1195      C1196   1.377       .  A
C1196      C1765   1.343       .  A
C1196      H1199   1.083       .  S
C1197      C1764   1.344       .  A
C1197      C1198   1.384       .  A
C1197      H1200   1.083       .  S
C1198      C1482   1.534       .  S
C1198      N1762   1.399   1_545  A
N1201      C1205   1.408       .  A
N1201      C1202   1.400       .  A
C1202      C1581   1.512       .  S
C1202      C1203   1.387       .  A
C1203      C1204   1.328       .  A
C1203      H1206   1.083       .  S
C1204      C1205   1.374       .  A
C1204      H1207   1.080       .  S
C1205      C1469   1.507       .  S
N1208      C1209   1.396   1_455  A
C1209      C1450   1.487       .  S
C1209      C1210   1.377       .  A
C1210      H1213   1.084       .  S
C1211      C1212   1.381       .  A
C1211      H1214   1.084       .  S
C1212      C1626   1.508       .  S
N1215      C1219   1.397       .  A
N1215      C1216   1.389       .  A
C1216      C1690   1.477       .  S
C1216      C1217   1.377       .  A
C1217      C1218   1.331       .  A
C1217      H1220   1.084       .  S
C1218      C1219   1.381       .  A
C1218      H1221   1.084       .  S
C1219      C1437   1.497       .  S
N1222      C1223   1.396       .  A
C1223      C1418   1.491       .  S
C1223      C1224   1.380       .  A
C1224      H1227   1.084       .  S
C1225      C1226   1.374       .  A
C1225      H1228   1.084       .  S
C1226      C1597   1.512       .  S
Fe1229     O1245   2.093       .  S
Fe1229     O1235   2.071       .  S
Fe1229     O1242   2.063       .  S
Fe1229     O1234   2.111       .  S
Fe1229     O1240   1.985       .  S
Fe1230     O1233   2.104       .  S
Fe1230     O1237   2.107       .  S
Fe1230     O1241   2.065       .  S
Fe1230     O1246   2.093       .  S
Fe1230     O1240   1.987       .  S
Fe1231     O1249   2.069       .  S
Fe1231     O1236   2.073       .  S
Fe1231     O1243   2.086       .  S
Fe1231     O1232   2.067       .  S
Fe1231     O1240   1.981       .  S
O1232      C1239   1.268       .  A
O1233      C1247   1.273       .  A
O1234      C1239   1.274       .  A
O1235      C1238   1.270       .  A
O1236      C1248   1.271       .  A
O1237      C1250   1.282       .  A
C1238      O1243   1.274       .  A
C1238      C1453   1.479       .  S
C1239      C1373   1.502       .  S
O1241      C1244   1.266       .  A
O1242      C1244   1.271       .  A
C1244      C1389   1.490       .  S
O1245      C1250   1.275       .  A
O1246      C1248   1.276       .  A
C1247      O1249   1.268       .  A
C1247      C1434   1.495       .  S
C1248      C1402   1.484       .  S
C1250      C1485   1.512       .  S
Fe1251     O1267   2.087       .  S
Fe1251     O1257   2.057       .  S
Fe1251     O1264   2.059       .  S
Fe1251     O1256   2.069       .  S
Fe1251     O1262   1.958       .  S
Fe1252     O1255   2.119       .  S
Fe1252     O1259   2.039       .  S
Fe1252     O1263   2.108       .  S
Fe1252     O1268   2.031       .  S
Fe1252     O1262   1.969       .  S
Fe1253     O1271   2.057       .  S
Fe1253     O1258   2.084       .  S
Fe1253     O1265   2.097       .  S
Fe1253     O1254   2.052       .  S
Fe1253     O1262   1.945       .  S
O1254      C1261   1.265       .  A
O1255      C1269   1.275       .  A
O1256      C1261   1.269       .  A
O1257      C1260   1.272       .  A
O1258      C1270   1.278       .  A
O1259      C1272   1.264       .  A
C1260      O1265   1.276       .  A
C1260      C1325   1.474       .  S
C1261      C1466   1.494       .  S
O1263      C1266   1.274       .  A
O1264      C1266   1.268       .  A
C1266      C1498   1.489       .  S
O1267      C1272   1.274       .  A
O1268      C1270   1.259       .  A
C1269      O1271   1.267       .  A
C1269      C1338   1.518       .  S
C1270      C1421   1.457       .  S
C1272      C1354   1.465       .  S
C1273      C1274   1.480       .  A
C1273      C1846   1.507   1_655  A
C1273      N1854   1.507       .  S
C1274      C1275   1.463       .  A
C1274      N1314   1.509       .  S
C1276      C1845   1.481       .  A
C1276      N1279   1.511       .  S
C1277      C1844   1.482       .  A
C1277      N1300   1.504       .  S
C1278      C1841   1.508   1_455  A
C1278      N1293   1.502       .  S
N1279      C1851   1.405       .  A
N1279      C1280   1.411       .  A
C1280      C1645   1.507       .  S
C1280      C1281   1.377       .  A
C1281      C1850   1.325       .  A
C1281      H1284   1.082       .  S
C1282      C1849   1.325       .  A
C1282      C1283   1.377   1_565  A
C1282      H1285   1.083       .  S
C1283      C1386   1.507       .  S
C1283      N1847   1.406   1_545  A
N1286      C1841   1.509       .  S
N1286      C1858   1.388       .  A
N1286      C1287   1.382       .  A
C1287      C1517   1.518       .  S
C1287      C1288   1.396       .  A
C1288      C1857   1.327       .  A
C1288      H1291   1.081       .  S
C1289      C1856   1.327       .  A
C1289      C1290   1.369       .  A
C1289      H1292   1.084       .  S
C1290      C1357   1.477       .  S
C1290      N1854   1.386       .  A
N1293      C1294   1.398   1_455  A
C1294      C1370   1.539       .  S
C1294      C1295   1.391       .  A
C1295      H1298   1.078       .  S
C1296      C1297   1.373       .  A
C1296      H1299   1.084       .  S
C1297      C1613   1.505       .  S
N1300      C1304   1.398       .  A
N1300      C1301   1.397       .  A
C1301      C1549   1.481       .  S
C1301      C1302   1.377       .  A
C1302      C1303   1.328       .  A
C1302      H1305   1.083       .  S
C1303      C1304   1.379       .  A
C1303      H1306   1.083       .  S
C1304      C1322   1.490       .  S
N1307      C1308   1.395       .  A
C1308      C1341   1.523       .  S
C1308      C1309   1.384       .  A
C1309      H1312   1.081       .  S
C1310      C1311   1.382   1_455  A
C1310      H1313   1.083       .  S
C1311      C1565   1.537       .  S
N1314      C1318   1.390       .  A
N1314      C1315   1.398       .  A
C1315      C1658   1.496       .  S
C1315      C1316   1.372       .  A
C1316      C1317   1.340       .  A
C1316      H1319   1.084       .  S
C1317      C1318   1.385       .  A
C1317      H1320   1.084       .  S
C1318      C1405   1.491       .  S
C1321      C1322   1.408       .  A
C1321      C1326   1.415       .  A
C1321      H1328   1.081       .  S
C1322      C1323   1.437       .  A
C1323      C1324   1.396       .  A
C1323      C1330   1.514       .  S
C1324      C1325   1.387       .  A
C1324      H1329   1.085       .  S
C1325      C1326   1.412       .  A
C1326      C1327   1.504       .  S
C1327      H1331   1.109       .  S
C1327      H1332   1.110       .  S
C1327      H1333   1.109       .  S
C1330      H1334   1.102       .  S
C1330      H1335   1.099       .  S
C1330      H1336   1.111       .  S
C1337      C1338   1.413       .  A
C1337      C1342   1.424       .  A
C1337      H1344   1.083       .  S
C1338      C1339   1.417       .  A
C1339      C1340   1.403       .  A
C1339      C1346   1.501       .  S
C1340      C1341   1.411       .  A
C1340      H1345   1.081       .  S
C1341      C1342   1.420       .  A
C1342      C1343   1.501       .  S
C1343      H1347   1.098       .  S
C1343      H1348   1.110       .  S
C1343      H1349   1.105       .  S
C1346      H1350   1.109       .  S
C1346      H1351   1.109       .  S
C1346      H1352   1.104       .  S
C1353      C1354   1.393       .  A
C1353      C1358   1.401       .  A
C1353      H1360   1.085       .  S
C1354      C1355   1.404       .  A
C1355      C1356   1.398       .  A
C1355      C1362   1.498       .  S
C1356      C1357   1.396       .  A
C1356      H1361   1.075       .  S
C1357      C1358   1.437       .  A
C1358      C1359   1.507       .  S
C1359      H1363   1.104       .  S
C1359      H1364   1.110       .  S
C1359      H1365   1.093       .  S
C1362      H1366   1.107       .  S
C1362      H1367   1.110       .  S
C1362      H1368   1.107       .  S
C1369      C1370   1.420       .  A
C1369      C1374   1.432       .  A
C1369      H1376   1.081       .  S
C1370      C1371   1.438       .  A
C1371      C1372   1.393       .  A
C1372      C1373   1.386       .  A
C1372      H1377   1.073       .  S
C1373      C1374   1.415       .  A
C1374      C1375   1.498       .  S
C1375      H1379   1.110       .  S
C1375      H1380   1.110       .  S
C1375      H1381   1.108       .  S
C1378      H1382   1.098       .  S
C1378      H1383   1.112       .  S
C1378      H1384   1.109       .  S
C1385      C1386   1.403       .  A
C1385      C1390   1.414       .  A
C1385      H1392   1.058       .  S
C1386      C1387   1.442   1_545  A
C1387      C1388   1.398   1_565  A
C1387      C1962   1.514       .  S
C1388      C1389   1.394       .  A
C1388      H1393   1.086       .  S
C1389      C1390   1.415       .  A
C1390      C1391   1.505       .  S
C1391      H1395   1.102       .  S
C1391      H1396   1.108       .  S
C1391      H1397   1.107       .  S
C1394      C1955   1.512       .  S
C1394      H1398   1.091       .  S
C1394      H1399   1.104       .  S
C1394      H1400   1.104       .  S
C1401      C1402   1.396       .  A
C1401      C1406   1.405       .  A
C1401      H1408   1.085       .  S
C1402      C1403   1.413       .  A
C1403      C1404   1.412       .  A
C1403      C1410   1.503       .  S
C1404      C1405   1.414       .  A
C1404      H1409   1.079       .  S
C1405      C1406   1.415       .  A
C1406      C1407   1.487       .  S
C1407      H1411   1.105       .  S
C1407      H1412   1.110       .  S
C1407      H1413   1.090       .  S
C1410      H1414   1.106       .  S
C1410      H1415   1.106       .  S
C1410      H1416   1.111       .  S
C1417      C1418   1.417       .  A
C1417      C1422   1.412       .  A
C1417      H1424   1.083       .  S
C1418      C1419   1.434       .  A
C1419      C1420   1.385       .  A
C1420      C1421   1.381       .  A
C1420      H1425   1.088       .  S
C1421      C1422   1.402       .  A
C1422      C1423   1.500       .  S
C1423      H1427   1.106       .  S
C1423      H1428   1.106       .  S
C1423      H1429   1.109       .  S
C1426      H1430   1.113       .  S
C1426      H1431   1.089       .  S
C1426      H1432   1.108       .  S
C1433      C1434   1.419       .  A
C1433      C1438   1.430       .  A
C1433      H1440   1.083       .  S
C1434      C1435   1.403       .  A
C1435      C1436   1.394       .  A
C1435      C1442   1.502       .  S
C1436      C1437   1.414       .  A
C1436      H1441   1.084       .  S
C1437      C1438   1.402       .  A
C1438      C1439   1.498       .  S
C1439      H1443   1.109       .  S
C1439      H1444   1.091       .  S
C1439      H1445   1.099       .  S
C1442      H1446   1.111       .  S
C1442      H1447   1.109       .  S
C1442      H1448   1.111       .  S
C1449      C1450   1.409       .  A
C1449      C1454   1.397       .  A
C1449      H1456   1.078       .  S
C1450      C1451   1.413       .  A
C1451      C1452   1.409       .  A
C1452      C1453   1.400       .  A
C1452      H1457   1.085       .  S
C1453      C1454   1.411       .  A
C1454      C1455   1.502       .  S
C1455      H1459   1.110       .  S
C1455      H1460   1.108       .  S
C1455      H1461   1.108       .  S
C1458      H1462   1.106       .  S
C1458      H1463   1.102       .  S
C1458      H1464   1.110       .  S
C1465      C1466   1.400       .  A
C1465      C1470   1.404       .  A
C1465      H1472   1.084       .  S
C1466      C1467   1.413       .  A
C1467      C1468   1.405       .  A
C1467      C1474   1.508       .  S
C1468      C1469   1.397       .  A
C1468      H1473   1.051       .  S
C1469      C1470   1.435       .  A
C1470      C1471   1.509       .  S
C1471      H1475   1.102       .  S
C1471      H1476   1.108       .  S
C1471      H1477   1.096       .  S
C1474      H1478   1.106       .  S
C1474      H1479   1.110       .  S
C1474      H1480   1.104       .  S
C1481      C1482   1.420       .  A
C1481      C1486   1.408       .  A
C1481      H1488   1.073   1_545  S
C1482      C1483   1.412       .  A
C1483      C1484   1.425       .  A
C1483      C1490   1.484       .  S
C1484      C1485   1.410       .  A
C1484      H1489   1.084       .  S
C1485      C1486   1.411       .  A
C1486      C1487   1.508       .  S
C1487      H1491   1.111   1_545  S
C1487      H1492   1.105   1_545  S
C1487      H1493   1.098       .  S
C1490      H1494   1.101   1_545  S
C1490      H1495   1.097       .  S
C1490      H1496   1.109       .  S
C1497      C1498   1.393       .  A
C1497      C1502   1.402       .  A
C1497      H1504   1.086       .  S
C1498      C1499   1.408       .  A
C1499      C1500   1.408       .  A
C1499      C1506   1.495       .  S
C1500      C1501   1.402       .  A
C1500      H1505   1.063       .  S
C1501      C1502   1.443       .  A
C1502      C1503   1.509       .  S
C1503      H1507   1.087       .  S
C1503      H1508   1.107       .  S
C1503      H1509   1.110       .  S
C1506      H1510   1.107       .  S
C1506      H1511   1.108       .  S
C1506      H1512   1.106       .  S
C1513      C1514   1.397       .  A
C1513      C1518   1.420       .  A
C1513      H1520   1.078       .  S
C1514      C1515   1.389       .  A
C1515      C1516   1.378       .  A
C1515      C1522   1.493       .  S
C1516      C1517   1.414       .  A
C1516      H1521   1.080       .  S
C1517      C1518   1.422       .  A
C1518      C1519   1.488       .  S
C1519      H1523   1.109   1_545  S
C1519      H1524   1.093       .  S
C1519      H1525   1.080   1_545  S
C1522      H1526   1.105       .  S
C1522      H1527   1.098       .  S
C1522      H1528   1.109       .  S
C1529      C1530   1.383       .  A
C1529      C1534   1.391       .  A
C1529      H1536   1.087       .  S
C1530      C1531   1.401       .  A
C1531      C1532   1.402       .  A
C1531      C1538   1.507       .  S
C1532      C1533   1.420       .  A
C1532      H1537   1.073       .  S
C1533      C1534   1.424       .  A
C1534      C1535   1.488       .  S
C1535      H1539   1.106       .  S
C1535      H2108   1.085   1_545  S
C1535      H1541   1.107   1_545  S
C1538      H1542   1.110       .  S
C1538      H1543   1.110       .  S
C1538      H1544   1.111       .  S
H1540      C2103   1.085       .  S
C1545      C1546   1.390       .  A
C1545      C1550   1.389       .  A
C1545      H1552   1.062       .  S
C1546      C1547   1.403       .  A
C1547      C1548   1.406       .  A
C1547      C1554   1.509       .  S
C1548      C1549   1.407       .  A
C1548      H1553   1.054       .  S
C1549      C1550   1.426       .  A
C1550      C1551   1.513       .  S
C1551      H1555   1.108       .  S
C1551      H1556   1.111       .  S
C1551      H1557   1.096       .  S
C1554      H1558   1.109       .  S
C1554      H1559   1.111       .  S
C1554      H1560   1.107       .  S
C1561      C1562   1.399       .  A
C1561      C1566   1.419       .  A
C1561      H1568   1.085       .  S
C1562      C1563   1.418       .  A
C1563      C1564   1.413       .  A
C1563      C1570   1.495       .  S
C1564      C1565   1.416       .  A
C1564      H1569   1.085       .  S
C1565      C1566   1.431       .  A
C1567      H1571   1.103       .  S
C1567      H1572   1.092       .  S
C1567      H1573   1.105       .  S
C1570      H1574   1.106       .  S
C1570      H1575   1.110       .  S
C1570      H1576   1.111       .  S
C1577      C1578   1.414       .  A
C1577      C1582   1.420       .  A
C1577      H1584   1.084       .  S
C1578      C1579   1.413       .  A
C1579      C1580   1.392       .  A
C1579      C1586   1.508       .  S
C1580      C1581   1.410       .  A
C1580      H1585   1.059       .  S
C1581      C1582   1.405       .  A
C1582      C1583   1.498       .  S
C1583      H1587   1.108       .  S
C1583      H1588   1.111       .  S
C1583      H1589   1.090   1_545  S
C1586      H1590   1.111       .  S
C1586      H1591   1.099       .  S
C1586      H1592   1.102       .  S
C1593      C1594   1.411       .  A
C1593      C1598   1.423       .  A
C1593      H1600   1.083       .  S
C1594      C1595   1.421       .  A
C1595      C1596   1.413       .  A
C1595      C1602   1.501       .  S
C1596      C1597   1.405       .  A
C1596      H1601   1.067       .  S
C1597      C1598   1.430       .  A
C1598      C1599   1.511   1_655  S
C1599      H1604   1.110       .  S
C1602      H1606   1.110       .  S
C1602      H1607   1.109       .  S
C1602      H1608   1.108       .  S
C1609      C1610   1.382       .  A
C1609      C1614   1.394       .  A
C1609      H1616   1.087       .  S
C1610      C1611   1.408       .  A
C1611      C1612   1.410       .  A
C1611      C1618   1.505       .  S
C1612      C1613   1.411       .  A
C1612      H1617   1.063       .  S
C1613      C1614   1.435       .  A
C1615      H1619   1.111       .  S
C1615      H1620   1.081   1_455  S
C1615      H1621   1.101   1_455  S
C1618      H1622   1.110       .  S
C1618      H1623   1.110       .  S
C1618      H1624   1.109       .  S
C1625      C1626   1.433       .  A
C1625      C1630   1.425       .  A
C1625      H1632   1.082       .  S
C1626      C1627   1.400       .  A
C1627      C1628   1.392       .  A
C1628      C1629   1.378       .  A
C1628      H1633   1.088       .  S
C1629      C1630   1.415       .  A
C1630      C1631   1.505       .  S
C1631      H1635   1.111       .  S
C1631      H1636   1.111       .  S
C1631      H1637   1.110       .  S
C1634      H1638   1.105       .  S
C1634      H1639   1.098       .  S
C1634      H1640   1.100   1_455  S
C1641      C1642   1.405       .  A
C1641      C1646   1.419       .  A
C1641      H1648   1.084       .  S
C1642      C1643   1.406       .  A
C1643      C1644   1.394       .  A
C1643      C1650   1.515       .  S
C1644      C1645   1.406       .  A
C1644      H1649   1.031       .  S
C1645      C1646   1.418       .  A
C1646      C2215   1.487       .  S
C1647      C2214   1.488   1_545  S
C1647      H1651   1.110   1_545  S
C1647      H1652   1.101       .  S
C1647      H1653   1.107       .  S
C1650      H1654   1.109       .  S
C1650      H1655   1.111       .  S
C1650      H1656   1.110       .  S
C1657      C1658   1.401       .  A
C1657      C1662   1.403       .  A
C1657      H1664   1.058       .  S
C1658      C1659   1.423       .  A
C1659      C1660   1.409       .  A
C1659      C1666   1.506       .  S
C1660      C1661   1.410       .  A
C1660      H1665   1.084       .  S
C1661      C1662   1.408       .  A
C1662      C1663   1.508       .  S
C1663      H1667   1.108       .  S
C1663      H1668   1.108       .  S
C1663      H1669   1.111       .  S
C1666      H1670   1.104       .  S
C1666      H1671   1.111       .  S
C1666      H1672   1.104       .  S
C1673      C1674   1.406       .  A
C1673      C1678   1.424       .  A
C1673      H1680   1.080       .  S
C1674      C1675   1.429       .  A
C1675      C1676   1.387       .  A
C1675      C1682   1.501       .  S
C1676      C1677   1.380       .  A
C1676      H1681   1.068       .  S
C1677      C1678   1.411       .  A
C1678      C1679   1.508       .  S
C1679      H1683   1.108       .  S
C1679      H1684   1.106       .  S
C1679      H1685   1.111       .  S
C1682      H1686   1.108       .  S
C1682      H1687   1.093       .  S
C1682      H1688   1.111       .  S
C1689      C1690   1.396       .  A
C1689      C1694   1.383       .  A
C1689      H1696   1.052       .  S
C1690      C1691   1.419       .  A
C1691      C1692   1.418       .  A
C1691      C1698   1.502       .  S
C1692      C1693   1.413       .  A
C1692      H1697   1.084       .  S
C1693      C1694   1.404       .  A
C1694      C1695   1.500       .  S
C1695      H1699   1.111       .  S
C1695      H1700   1.108       .  S
C1695      H1701   1.110       .  S
C1698      H1702   1.099       .  S
C1698      H1703   1.108       .  S
C1698      H1704   1.109       .  S
Fe1705     O1721   2.112   1_556  S
Fe1705     O1711   2.064   1_556  S
Fe1705     O1718   2.088       .  S
Fe1705     O1710   2.109       .  S
Fe1705     O1716   1.946   1_556  S
Fe1706     O1709   2.067       .  S
Fe1706     O1713   2.034       .  S
Fe1706     O1717   2.036   1_554  S
Fe1706     O1722   2.057   1_554  S
Fe1706     O1716   1.956       .  S
Fe1707     O1725   2.065       .  S
Fe1707     O1712   2.064   1_554  S
Fe1707     O1719   2.032       .  S
Fe1707     O1708   2.046   1_554  S
Fe1707     O1716   1.967       .  S
O1708      C1715   1.272       .  A
O1709      C1723   1.269       .  A
O1710      C1715   1.285       .  A
O1711      C1714   1.269       .  A
O1712      C1724   1.266       .  A
O1713      C1726   1.267       .  A
C1714      O1719   1.254       .  A
C1714      C2261   1.473       .  S
C1715      C2229   1.495       .  S
O1717      C1720   1.261       .  A
O1718      C1720   1.270       .  A
C1720      C2210   1.482       .  S
O1721      C1726   1.284       .  A
O1722      C1724   1.266       .  A
C1723      O1725   1.264       .  A
C1723      C2197   1.476       .  S
C1724      C2178   1.463       .  S
C1726      C2245   1.473       .  S
Fe1727     O1743   2.099   1_556  S
Fe1727     O1733   2.054   1_556  S
Fe1727     O1740   2.113       .  S
Fe1727     O1732   2.065       .  S
Fe1727     O1738   1.983       .  S
Fe1728     O1731   2.049   1_556  S
Fe1728     O1735   2.095   1_556  S
Fe1728     O1739   2.099       .  S
Fe1728     O1744   2.064       .  S
Fe1728     O1738   1.959       .  S
Fe1729     O1747   2.067       .  S
Fe1729     O1734   2.090   1_554  S
Fe1729     O1741   2.047       .  S
Fe1729     O1730   2.054   1_554  S
Fe1729     O1738   1.991   1_554  S
O1730      C1737   1.266       .  A
O1731      C1745   1.263       .  A
O1732      C1737   1.269       .  A
O1733      C1736   1.267       .  A
O1734      C1746   1.278       .  A
O1735      C1748   1.276       .  A
C1736      O1741   1.269       .  A
C1736      C2098   1.453       .  S
C1737      C2082   1.464       .  S
O1739      C1742   1.271       .  A
O1740      C1742   1.274       .  A
C1742      C2130   1.517       .  S
O1743      C1748   1.275       .  A
O1744      C1746   1.277       .  A
C1745      O1747   1.262       .  A
C1745      C2146   1.497       .  S
C1746      C2114   1.478       .  S
C1748      C2162   1.525       .  S
C1749      C1754   1.494       .  A
C1750      C1751   1.479       .  A
C1751      C1752   1.499       .  A
C1751      N1769   1.508       .  S
C1753      C1754   1.482       .  A
C1754      N1783   1.496       .  S
N1755      C1756   1.399       .  A
C1756      C2101   1.493       .  S
C1756      C1757   1.381       .  A
C1757      H1760   1.084       .  S
C1758      C1759   1.381       .  A
C1758      H1761   1.084       .  S
C1759      C2069   1.512       .  S
N1762      C1763   1.381       .  A
C1763      C2242   1.503       .  S
C1763      C1764   1.376   1_565  A
C1764      H1767   1.083       .  S
C1765      C1766   1.385       .  A
C1765      H1768   1.083       .  S
C1766      C2050   1.533       .  S
N1769      C1773   1.406       .  A
N1769      C1770   1.400       .  A
C1770      C2149   1.512       .  S
C1770      C1771   1.388       .  A
C1771      C1772   1.328       .  A
C1771      H1774   1.083       .  S
C1772      C1773   1.374       .  A
C1772      H1775   1.080       .  S
C1773      C2037   1.504       .  S
N1776      C1777   1.396   1_455  A
C1777      C2018   1.487       .  S
C1777      C1778   1.377       .  A
C1778      H1781   1.084       .  S
C1779      C1780   1.381       .  A
C1779      H1782   1.084       .  S
C1780      C2194   1.510       .  S
N1783      C1787   1.399       .  A
N1783      C1784   1.388       .  A
C1784      C2258   1.472       .  S
C1784      C1785   1.377       .  A
C1785      C1786   1.330       .  A
C1785      H1788   1.084       .  S
C1786      C1787   1.382       .  A
C1786      H1789   1.084       .  S
C1787      C2005   1.498       .  S
N1790      C1791   1.394       .  A
C1791      C1986   1.489       .  S
C1791      C1792   1.380       .  A
C1792      H1795   1.084       .  S
C1793      C1794   1.374       .  A
C1793      H1796   1.084       .  S
C1794      C2165   1.511       .  S
Fe1797     O1813   2.091       .  S
Fe1797     O1803   2.072       .  S
Fe1797     O1810   2.061       .  S
Fe1797     O1802   2.107       .  S
Fe1797     O1808   1.987       .  S
Fe1798     O1801   2.099       .  S
Fe1798     O1805   2.106       .  S
Fe1798     O1809   2.062       .  S
Fe1798     O1814   2.092       .  S
Fe1798     O1808   1.990       .  S
Fe1799     O1817   2.076       .  S
Fe1799     O1804   2.072       .  S
Fe1799     O1811   2.086       .  S
Fe1799     O1800   2.075       .  S
Fe1799     O1808   1.981       .  S
O1800      C1807   1.269       .  A
O1801      C1815   1.271       .  A
O1802      C1807   1.273       .  A
O1803      C1806   1.270       .  A
O1804      C1816   1.271       .  A
O1805      C1818   1.281       .  A
C1806      O1811   1.275       .  A
C1806      C2021   1.478       .  S
C1807      C1941   1.502       .  S
O1809      C1812   1.265       .  A
O1810      C1812   1.270       .  A
C1812      C1957   1.489       .  S
O1813      C1818   1.275       .  A
O1814      C1816   1.276       .  A
C1815      O1817   1.269       .  A
C1815      C2002   1.496       .  S
C1816      C1970   1.484       .  S
C1818      C2053   1.511       .  S
Fe1819     O1835   2.087       .  S
Fe1819     O1825   2.065       .  S
Fe1819     O1832   2.065       .  S
Fe1819     O1824   2.063       .  S
Fe1819     O1830   1.960       .  S
Fe1820     O1823   2.114       .  S
Fe1820     O1827   2.040       .  S
Fe1820     O1831   2.105       .  S
Fe1820     O1836   2.032       .  S
Fe1820     O1830   1.971       .  S
Fe1821     O1839   2.053       .  S
Fe1821     O1826   2.079       .  S
Fe1821     O1833   2.093       .  S
Fe1821     O1822   2.047       .  S
Fe1821     O1830   1.951       .  S
O1822      C1829   1.263       .  A
O1823      C1837   1.274       .  A
O1824      C1829   1.267       .  A
O1825      C1828   1.274       .  A
O1826      C1838   1.277       .  A
O1827      C1840   1.264       .  A
C1828      O1833   1.276       .  A
C1828      C1893   1.476       .  S
C1829      C2034   1.489       .  S
O1831      C1834   1.273       .  A
O1832      C1834   1.269       .  A
C1834      C2066   1.491       .  S
O1835      C1840   1.274       .  A
O1836      C1838   1.260       .  A
C1837      O1839   1.266       .  A
C1837      C1906   1.515       .  S
C1838      C1989   1.455       .  S
C1840      C1922   1.467       .  S
C1841      C1842   1.480   1_545  A
C1842      C1843   1.464       .  A
C1842      N1882   1.510       .  S
C1844      N1847   1.512   1_545  S
C1845      N1868   1.504       .  S
C1846      N1861   1.502       .  S
N1847      C1848   1.411       .  A
C1848      C2213   1.507       .  S
C1848      C1849   1.377       .  A
C1849      H1852   1.082       .  S
C1850      C1851   1.377       .  A
C1850      H1853   1.083       .  S
C1851      C1954   1.506       .  S
N1854      C1855   1.381       .  A
C1855      C2085   1.517       .  S
C1855      C1856   1.396       .  A
C1856      H1859   1.081       .  S
C1857      C1858   1.369       .  A
C1857      H1860   1.084       .  S
C1858      C1925   1.479   1_545  S
N1861      C1862   1.399   1_455  A
C1862      C1938   1.540       .  S
C1862      C1863   1.392       .  A
C1863      H1866   1.079       .  S
C1864      C1865   1.373       .  A
C1864      H1867   1.084       .  S
C1865      C2181   1.505       .  S
N1868      C1872   1.400       .  A
N1868      C1869   1.399       .  A
C1869      C2117   1.484       .  S
C1869      C1870   1.377       .  A
C1870      C1871   1.328       .  A
C1870      H1873   1.083       .  S
C1871      C1872   1.379       .  A
C1871      H1874   1.083       .  S
C1872      C1890   1.493       .  S
N1875      C1876   1.395       .  A
C1876      C1909   1.521       .  S
C1876      C1877   1.383       .  A
C1877      H1880   1.081       .  S
C1878      C1879   1.382   1_455  A
C1878      H1881   1.083       .  S
C1879      C2133   1.537       .  S
N1882      C1886   1.391       .  A
N1882      C1883   1.398       .  A
C1883      C2226   1.495       .  S
C1883      C1884   1.372       .  A
C1884      C1885   1.339       .  A
C1884      H1887   1.084       .  S
C1885      C1886   1.385       .  A
C1885      H1888   1.084       .  S
C1886      C1973   1.491       .  S
C1889      C1890   1.409       .  A
C1889      C1894   1.416       .  A
C1889      H1896   1.081       .  S
C1890      C1891   1.438       .  A
C1891      C1892   1.397       .  A
C1891      C1898   1.514       .  S
C1892      C1893   1.386       .  A
C1892      H1897   1.085       .  S
C1893      C1894   1.412       .  A
C1894      C1895   1.504       .  S
C1895      H1899   1.109       .  S
C1895      H1900   1.110       .  S
C1895      H1901   1.109       .  S
C1898      H1902   1.102       .  S
C1898      H1903   1.099       .  S
C1898      H1904   1.111       .  S
C1905      C1906   1.412       .  A
C1905      C1910   1.423       .  A
C1905      H1912   1.084       .  S
C1906      C1907   1.418       .  A
C1907      C1908   1.402       .  A
C1907      C1914   1.501       .  S
C1908      C1909   1.410       .  A
C1908      H1913   1.081       .  S
C1909      C1910   1.420       .  A
C1910      C1911   1.501       .  S
C1911      H1915   1.098   1_565  S
C1911      H1916   1.110   1_565  S
C1911      H1917   1.106   1_565  S
C1914      H1918   1.109       .  S
C1914      H1919   1.109       .  S
C1914      H1920   1.104       .  S
C1921      C1922   1.393       .  A
C1921      C1926   1.401       .  A
C1921      H1928   1.085       .  S
C1922      C1923   1.405       .  A
C1923      C1924   1.400       .  A
C1923      C1930   1.498       .  S
C1924      C1925   1.397       .  A
C1924      H1929   1.075       .  S
C1925      C1926   1.437       .  A
C1926      C1927   1.508       .  S
C1927      H1931   1.105       .  S
C1927      H1932   1.110       .  S
C1927      H1933   1.093       .  S
C1930      H1934   1.106       .  S
C1930      H1935   1.110       .  S
C1930      H1936   1.107       .  S
C1937      C1938   1.420       .  A
C1937      C1942   1.432       .  A
C1937      H1944   1.081       .  S
C1938      C1939   1.439       .  A
C1939      C1940   1.394       .  A
C1940      C1941   1.385       .  A
C1940      H1945   1.073       .  S
C1941      C1942   1.415       .  A
C1942      C1943   1.497       .  S
C1943      H1947   1.110       .  S
C1943      H1948   1.109       .  S
C1943      H1949   1.107       .  S
C1946      H1950   1.098       .  S
C1946      H1951   1.112       .  S
C1946      H1952   1.110       .  S
C1953      C1954   1.404       .  A
C1953      C1958   1.414       .  A
C1953      H1960   1.057       .  S
C1954      C1955   1.440       .  A
C1955      C1956   1.396       .  A
C1956      C1957   1.394       .  A
C1956      H1961   1.085       .  S
C1957      C1958   1.415       .  A
C1958      C1959   1.506       .  S
C1959      H1963   1.102       .  S
C1959      H1964   1.108       .  S
C1959      H1965   1.107       .  S
C1962      H1966   1.091       .  S
C1962      H1967   1.104       .  S
C1962      H1968   1.104       .  S
C1969      C1970   1.396       .  A
C1969      C1974   1.405       .  A
C1969      H1976   1.085       .  S
C1970      C1971   1.412       .  A
C1971      C1972   1.413       .  A
C1971      C1978   1.504       .  S
C1972      C1973   1.415       .  A
C1972      H1977   1.080       .  S
C1973      C1974   1.416       .  A
C1974      C1975   1.487       .  S
C1975      H1979   1.104       .  S
C1975      H1980   1.110       .  S
C1975      H1981   1.089       .  S
C1978      H1982   1.107       .  S
C1978      H1983   1.107       .  S
C1978      H1984   1.111       .  S
C1985      C1986   1.417       .  A
C1985      C1990   1.412       .  A
C1985      H1992   1.083       .  S
C1986      C1987   1.433       .  A
C1987      C1988   1.384       .  A
C1988      C1989   1.381       .  A
C1988      H1993   1.088       .  S
C1989      C1990   1.402       .  A
C1990      C1991   1.500       .  S
C1991      H1995   1.107       .  S
C1991      H1996   1.105       .  S
C1991      H1997   1.109       .  S
C1994      H1998   1.113       .  S
C1994      H1999   1.089       .  S
C1994      H2000   1.107       .  S
C2001      C2002   1.420       .  A
C2001      C2006   1.431       .  A
C2001      H2008   1.083       .  S
C2002      C2003   1.402       .  A
C2003      C2004   1.394       .  A
C2003      C2010   1.503       .  S
C2004      C2005   1.415       .  A
C2004      H2009   1.084       .  S
C2005      C2006   1.401       .  A
C2006      C2007   1.498       .  S
C2007      H2011   1.109       .  S
C2007      H2012   1.089       .  S
C2007      H2013   1.100       .  S
C2010      H2014   1.111       .  S
C2010      H2015   1.109       .  S
C2010      H2016   1.111       .  S
C2017      C2018   1.410       .  A
C2017      C2022   1.396       .  A
C2017      H2024   1.077       .  S
C2018      C2019   1.413       .  A
C2019      C2020   1.409       .  A
C2020      C2021   1.401       .  A
C2020      H2025   1.085       .  S
C2021      C2022   1.410       .  A
C2022      C2023   1.503       .  S
C2023      H2027   1.110       .  S
C2023      H2028   1.109       .  S
C2023      H2029   1.108       .  S
C2026      H2030   1.106       .  S
C2026      H2031   1.103       .  S
C2026      H2032   1.110       .  S
C2033      C2034   1.399       .  A
C2033      C2038   1.401       .  A
C2033      H2040   1.084       .  S
C2034      C2035   1.412       .  A
C2035      C2036   1.404       .  A
C2035      C2042   1.508       .  S
C2036      C2037   1.397       .  A
C2036      H2041   1.050       .  S
C2037      C2038   1.434       .  A
C2038      C2039   1.509       .  S
C2039      H2043   1.102       .  S
C2039      H2044   1.109       .  S
C2039      H2045   1.096       .  S
C2042      H2046   1.105       .  S
C2042      H2047   1.110       .  S
C2042      H2048   1.104       .  S
C2049      C2050   1.420       .  A
C2049      C2054   1.407       .  A
C2049      H2056   1.073       .  S
C2050      C2051   1.412       .  A
C2051      C2052   1.424       .  A
C2051      C2058   1.485       .  S
C2052      C2053   1.411       .  A
C2052      H2057   1.084       .  S
C2053      C2054   1.411       .  A
C2054      C2055   1.508       .  S
C2055      H2059   1.111       .  S
C2055      H2060   1.105       .  S
C2055      H2061   1.099       .  S
C2058      H2062   1.101       .  S
C2058      H2063   1.097       .  S
C2058      H2064   1.109       .  S
C2065      C2066   1.393       .  A
C2065      C2070   1.403       .  A
C2065      H2072   1.086       .  S
C2066      C2067   1.409       .  A
C2067      C2068   1.408       .  A
C2067      C2074   1.495       .  S
C2068      C2069   1.402       .  A
C2068      H2073   1.064       .  S
C2069      C2070   1.442       .  A
C2070      C2071   1.508       .  S
C2071      H2075   1.088       .  S
C2071      H2076   1.106       .  S
C2071      H2077   1.109       .  S
C2074      H2078   1.107       .  S
C2074      H2079   1.108       .  S
C2074      H2080   1.107   1_565  S
C2081      C2082   1.396       .  A
C2081      C2086   1.419       .  A
C2081      H2088   1.078       .  S
C2082      C2083   1.389       .  A
C2083      C2084   1.377       .  A
C2083      C2090   1.492       .  S
C2084      C2085   1.413       .  A
C2084      H2089   1.079       .  S
C2085      C2086   1.421       .  A
C2086      C2087   1.486       .  S
C2087      H2091   1.109       .  S
C2087      H2092   1.093       .  S
C2087      H2093   1.081       .  S
C2090      H2094   1.106       .  S
C2090      H2095   1.099       .  S
C2090      H2096   1.109       .  S
C2097      C2098   1.384       .  A
C2097      C2102   1.392       .  A
C2097      H2104   1.086       .  S
C2098      C2099   1.401       .  A
C2099      C2100   1.402       .  A
C2099      C2106   1.507       .  S
C2100      C2101   1.420       .  A
C2100      H2105   1.073       .  S
C2101      C2102   1.422       .  A
C2102      C2103   1.486       .  S
C2103      H2107   1.106       .  S
C2103      H2109   1.108       .  S
C2106      H2110   1.110       .  S
C2106      H2111   1.110       .  S
C2106      H2112   1.111       .  S
C2113      C2114   1.391       .  A
C2113      C2118   1.391       .  A
C2113      H2120   1.062       .  S
C2114      C2115   1.404       .  A
C2115      C2116   1.407       .  A
C2115      C2122   1.509       .  S
C2116      C2117   1.407       .  A
C2116      H2121   1.055       .  S
C2117      C2118   1.427       .  A
C2118      C2119   1.513       .  S
C2119      H2123   1.108       .  S
C2119      H2124   1.111       .  S
C2119      H2125   1.096       .  S
C2122      H2126   1.109       .  S
C2122      H2127   1.110       .  S
C2122      H2128   1.107       .  S
C2129      C2130   1.400       .  A
C2129      C2134   1.420       .  A
C2129      H2136   1.085       .  S
C2130      C2131   1.418       .  A
C2131      C2132   1.414       .  A
C2131      C2138   1.495       .  S
C2132      C2133   1.416       .  A
C2132      H2137   1.085       .  S
C2133      C2134   1.431       .  A
C2135      H2139   1.102       .  S
C2135      H2140   1.092       .  S
C2135      H2141   1.104       .  S
C2138      H2142   1.106       .  S
C2138      H2143   1.110       .  S
C2138      H2144   1.111       .  S
C2145      C2146   1.414       .  A
C2145      C2150   1.420       .  A
C2145      H2152   1.084       .  S
C2146      C2147   1.414       .  A
C2147      C2148   1.392       .  A
C2147      C2154   1.507       .  S
C2148      C2149   1.409       .  A
C2148      H2153   1.060       .  S
C2149      C2150   1.404       .  A
C2150      C2151   1.498       .  S
C2151      H2155   1.108       .  S
C2151      H2156   1.111       .  S
C2151      H2157   1.090       .  S
C2154      H2158   1.110       .  S
C2154      H2159   1.097       .  S
C2154      H2160   1.103       .  S
C2161      C2162   1.411       .  A
C2161      C2166   1.423       .  A
C2161      H2168   1.083       .  S
C2162      C2163   1.420       .  A
C2163      C2164   1.411       .  A
C2163      C2170   1.499       .  S
C2164      C2165   1.404       .  A
C2164      H2169   1.067       .  S
C2165      C2166   1.430       .  A
C2166      C2167   1.510   1_655  S
C2167      H2172   1.110       .  S
C2170      H2174   1.111       .  S
C2170      H2175   1.109       .  S
C2170      H2176   1.109       .  S
C2177      C2178   1.382       .  A
C2177      C2182   1.394       .  A
C2177      H2184   1.087       .  S
C2178      C2179   1.407       .  A
C2179      C2180   1.410       .  A
C2179      C2186   1.505       .  S
C2180      C2181   1.411       .  A
C2180      H2185   1.061       .  S
C2181      C2182   1.434       .  A
C2183      H2187   1.111       .  S
C2183      H2188   1.081       .  S
C2183      H2189   1.101   1_455  S
C2186      H2190   1.110       .  S
C2186      H2191   1.110       .  S
C2186      H2192   1.109       .  S
C2193      C2194   1.433       .  A
C2193      C2198   1.425       .  A
C2193      H2200   1.082       .  S
C2194      C2195   1.400       .  A
C2195      C2196   1.393       .  A
C2196      C2197   1.378       .  A
C2196      H2201   1.087       .  S
C2197      C2198   1.415       .  A
C2198      C2199   1.505       .  S
C2199      H2203   1.111       .  S
C2199      H2204   1.111       .  S
C2199      H2205   1.110       .  S
C2202      H2206   1.106       .  S
C2202      H2207   1.097       .  S
C2202      H2208   1.099   1_455  S
C2209      C2210   1.407       .  A
C2209      C2214   1.421       .  A
C2209      H2216   1.084       .  S
C2210      C2211   1.407       .  A
C2211      C2212   1.394       .  A
C2211      C2218   1.516       .  S
C2212      C2213   1.407       .  A
C2212      H2217   1.030       .  S
C2213      C2214   1.417       .  A
C2215      H2219   1.110       .  S
C2215      H2220   1.099       .  S
C2215      H2221   1.107       .  S
C2218      H2222   1.109       .  S
C2218      H2223   1.111       .  S
C2218      H2224   1.110       .  S
C2225      C2226   1.401       .  A
C2225      C2230   1.403       .  A
C2225      H2232   1.059       .  S
C2226      C2227   1.422       .  A
C2227      C2228   1.409       .  A
C2227      C2234   1.506       .  S
C2228      C2229   1.410       .  A
C2228      H2233   1.084       .  S
C2229      C2230   1.409       .  A
C2230      C2231   1.509       .  S
C2231      H2235   1.108       .  S
C2231      H2236   1.108       .  S
C2231      H2237   1.111       .  S
C2234      H2238   1.104       .  S
C2234      H2239   1.111       .  S
C2234      H2240   1.104       .  S
C2241      C2242   1.406       .  A
C2241      C2246   1.423       .  A
C2241      H2248   1.080       .  S
C2242      C2243   1.429       .  A
C2243      C2244   1.388       .  A
C2243      C2250   1.500       .  S
C2244      C2245   1.381       .  A
C2244      H2249   1.070       .  S
C2245      C2246   1.411       .  A
C2246      C2247   1.509       .  S
C2247      H2251   1.108       .  S
C2247      H2252   1.106       .  S
C2247      H2253   1.111       .  S
C2250      H2254   1.108       .  S
C2250      H2255   1.093       .  S
C2250      H2256   1.110       .  S
C2257      C2258   1.396       .  A
C2257      C2262   1.381       .  A
C2257      H2264   1.054       .  S
C2258      C2259   1.419       .  A
C2259      C2260   1.417       .  A
C2259      C2266   1.502       .  S
C2260      C2261   1.413       .  A
C2260      H2265   1.084       .  S
C2261      C2262   1.403       .  A
C2262      C2263   1.502       .  S
C2263      H2267   1.111       .  S
C2263      H2268   1.108       .  S
C2263      H2269   1.110       .  S
C2266      H2270   1.099       .  S
C2266      H2271   1.109       .  S
C2266      H2272   1.109       .  S
