geometry optimzed in LAMMPS
_audit_creation_date              2020-11-30 
_audit_creation_method            'lammps2cif' 
_symmetry_space_group_name_H-M    'P1' 
_symmetry_Int_Tables_number       1 
_symmetry_cell_setting            triclinic 
loop_ 
_symmetry_equiv_pos_as_xyz 
  x,y,z 
_cell_length_a                    56.18307512 
_cell_length_b                    55.98836464983133 
_cell_length_c                    56.29704225940813 
_cell_angle_alpha                 89.93002012706762 
_cell_angle_beta                  90.12097063816174 
_cell_angle_gamma                 90.06340275061291 
loop_ 
_atom_site_label 
_atom_site_type_symbol 
_atom_site_fract_x 
_atom_site_fract_y 
_atom_site_fract_z 
_atom_site_charge 
C1          C  0.12574099  0.75037307  0.97765616     0.79800
N2          N  0.13778861  0.75300424  0.99836166    -0.78500
C3          C  0.12702628  0.74962420  0.01965479     0.82300
N4          N  0.10351665  0.74358817  0.02020392    -0.78400
C5          C  0.09097307  0.74137062  0.99949291     0.82400
N6          N  0.10226412  0.74451654  0.97832089    -0.80100
C7          C  0.34976387  0.53760417  0.01944428     0.79800
N8          N  0.34285673  0.51433022  0.02068149    -0.78500
C9          C  0.34018028  0.50124964  0.00046312     0.82300
N10         N  0.34405130  0.51156301  0.97902393    -0.78400
C11         C  0.35096296  0.53469461  0.97753413     0.82400
N12         N  0.35382265  0.54757118  0.99777492    -0.80100
C13         C  0.03400603  0.21628161  0.02137986     0.79800
N14         N  0.05786415  0.21941917  0.02024186    -0.78500
C15         C  0.06914966  0.21946774  0.99891815     0.82300
N16         N  0.05635300  0.21669145  0.97848707    -0.78400
C17         C  0.03232762  0.21357305  0.97956885     0.82400
N18         N  0.02149665  0.21335201  0.00105185    -0.80100
C19         C  0.82852845  0.44483335  0.97455371     0.79800
N20         N  0.82465787  0.46884346  0.97532075    -0.78500
C21         C  0.82293444  0.48025314  0.99668346     0.82300
N22         N  0.82479851  0.46747584  0.01717034    -0.78400
C23         C  0.82861395  0.44352463  0.01653000     0.82400
N24         N  0.83050478  0.43250168  0.99521213    -0.80100
C25         C  0.84673709  0.01133237  0.04490211     0.79800
N26         N  0.84899779  0.99113537  0.05807076    -0.78500
C27         C  0.84447110  0.96929061  0.04860270     0.82300
N28         N  0.83773966  0.96775376  0.02543701    -0.78400
C29         C  0.83572684  0.98784948  0.01190669     0.82400
N30         N  0.84002273  0.00959037  0.02176591    -0.80100
C31         C  0.62969396  0.00808390  0.25000716     0.79800
N32         N  0.64042228  0.98691481  0.25433664    -0.78500
C33         C  0.62903926  0.96593837  0.25034511     0.82300
N34         N  0.60614176  0.96618529  0.24226185    -0.78400
C35         C  0.59494236  0.98747037  0.23836667     0.82400
N36         N  0.60695664  0.00831184  0.24190536    -0.80100
C37         C  0.34671503  0.96904666  0.95002885     0.79800
N38         N  0.34656867  0.96956680  0.97413674    -0.78500
C39         C  0.34780038  0.99067016  0.98593524     0.82300
N40         N  0.34899853  0.01152174  0.97348086    -0.78400
C41         C  0.34917930  0.01130913  0.94930490     0.82400
N42         N  0.34809369  0.98996786  0.93781243    -0.80100
C43         C  0.53362320  0.96865361  0.74407118     0.79800
N44         N  0.55749961  0.96868585  0.74783809    -0.78500
C45         C  0.56947645  0.98962929  0.75048397     0.82300
N46         N  0.55742169  0.01070716  0.74949893    -0.78400
C47         C  0.53350067  0.01090026  0.74571387     0.82400
N48         N  0.52186836  0.98980368  0.74304235    -0.80100
C49         C  0.03074159  0.72430118  0.02083806     0.79800
N50         N  0.05400170  0.73110184  0.02075685    -0.78500
C51         C  0.06546723  0.73484343  0.99973957     0.82300
N52         N  0.05329238  0.73237565  0.97883738    -0.78400
C53         C  0.02998617  0.72568562  0.97894040     0.82400
N54         N  0.01912151  0.72162081  0.99997018    -0.80100
C55         C  0.81166841  0.54134170  0.01994343     0.79800
N56         N  0.81595405  0.51741670  0.01914016    -0.78500
C57         C  0.81902484  0.50629160  0.99776080     0.82300
N58         N  0.81828968  0.51932180  0.97733066    -0.78400
C59         C  0.81413936  0.54321120  0.97815549     0.82400
N60         N  0.81076948  0.55385531  0.99942180    -0.80100
C61         C  0.13119869  0.22620630  0.97760389     0.79800
N62         N  0.10710235  0.22377128  0.97759979    -0.78500
C63         C  0.09511628  0.22210757  0.99848435     0.82300
N64         N  0.10726800  0.22285523  0.01937064    -0.78400
C65         C  0.13127929  0.22528822  0.01964640     0.82400
N66         N  0.14306180  0.22692084  0.99868026    -0.80100
C67         C  0.32169472  0.44055133  0.98201534     0.79800
N68         N  0.31665447  0.43073052  0.00338115    -0.78500
C69         C  0.31940258  0.44319099  0.02376834     0.82300
N70         N  0.32728277  0.46607922  0.02279664    -0.78400
C71         C  0.33217834  0.47635347  0.00148998     0.82400
N72         N  0.32957979  0.46349129  0.98108920    -0.80100
C73         C  0.82314679  0.00391068  0.94912623     0.79800
N74         N  0.82815461  0.00590419  0.97270586    -0.78500
C75         C  0.82965254  0.98595858  0.98655586     0.82300
N76         N  0.82659664  0.96403379  0.97663676    -0.78400
C77         C  0.82164337  0.96194557  0.95313274     0.82400
N78         N  0.81990794  0.98191802  0.93963192    -0.80100
C79         C  0.63054482  0.00996861  0.76484751     0.79800
N80         N  0.64198127  0.98875292  0.76679276    -0.78500
C81         C  0.63051048  0.96784343  0.76276551     0.82300
N82         N  0.60702267  0.96817932  0.75695976    -0.78400
C83         C  0.59518980  0.98935953  0.75532049     0.82400
N84         N  0.60706930  0.01023210  0.75903345    -0.80100
C85         C  0.35292137  0.97041804  0.04850936     0.79800
N86         N  0.35109949  0.97002031  0.02441054    -0.78500
C87         C  0.34866328  0.99083622  0.01204211     0.82300
N88         N  0.34758678  0.01193281  0.02390087    -0.78400
C89         C  0.34912971  0.01244849  0.04796394     0.82400
N90         N  0.35195034  0.99166757  0.06000229    -0.80100
C91         C  0.53271208  0.96985678  0.22369314     0.79800
N92         N  0.52246684  0.99170833  0.22230863    -0.78500
C93         C  0.53516901  0.01196259  0.22564926     0.82300
N94         N  0.55877736  0.01027022  0.23042399    -0.78400
C95         C  0.56956433  0.98852020  0.23176040     0.82400
N96         N  0.55642840  0.96821967  0.22863925    -0.80100
C97         C  0.06507944  0.03566580  0.74991192     0.79800
N98         N  0.06450396  0.01196979  0.75543749    -0.78500
C99         C  0.08518364  0.99925377  0.75710100     0.82300
N100        N  0.10646813  0.01043787  0.75336078    -0.78400
C101        C  0.10712524  0.03402047  0.74752024     0.82400
N102        N  0.08641129  0.04626250  0.74586509    -0.80100
C103        C  0.05879862  0.23402890  0.54438075     0.79800
N104        N  0.05997928  0.23776277  0.52060152    -0.78500
C105        C  0.08139573  0.24093769  0.50973593     0.82300
N106        N  0.10181154  0.24069863  0.52292917    -0.78400
C107        C  0.10069376  0.23687717  0.54682115     0.82400
N108        N  0.07919159  0.23351505  0.55719995    -0.80100
C109        C  0.10501331  0.93759103  0.77131474     0.79800
N110        N  0.10530665  0.96147780  0.76692595    -0.78500
C111        C  0.08462843  0.97332552  0.76216767     0.82300
N112        N  0.06368485  0.96093990  0.76117672    -0.78400
C113        C  0.06341372  0.93691658  0.76511969     0.82400
N114        N  0.08411792  0.92564381  0.77026757    -0.80100
C115        C  0.06181278  0.74665186  0.54824496     0.79800
N116        N  0.06258523  0.75142092  0.52464051    -0.78500
C117        C  0.08370753  0.75186786  0.51295110     0.82300
N118        N  0.10427770  0.74744512  0.52500450    -0.78400
C119        C  0.10367086  0.74259138  0.54869433     0.82400
N120        N  0.08239936  0.74228968  0.56004516    -0.80100
C121        C  0.10270902  0.94317364  0.24905077     0.79800
N122        N  0.08167341  0.93129612  0.24753176    -0.78500
C123        C  0.06070186  0.94263774  0.25145134     0.82300
N124        N  0.06086119  0.96627304  0.25677626    -0.78400
C125        C  0.08178148  0.97836133  0.25825037     0.82400
N126        N  0.10264388  0.96675978  0.25450226    -0.80100
C127        C  0.10463142  0.76015833  0.45110252     0.79800
N128        N  0.08355034  0.76287092  0.43963394    -0.78500
C129        C  0.06262714  0.76234879  0.45158322     0.82300
N130        N  0.06293113  0.75912547  0.47547755    -0.78400
C131        C  0.08390783  0.75643227  0.48727464     0.82400
N132        N  0.10473803  0.75677741  0.47502415    -0.80100
C133        C  0.06106244  0.04024791  0.26738797     0.79800
N134        N  0.08217758  0.05196892  0.26892375    -0.78500
C135        C  0.10313465  0.03996527  0.26755467     0.82300
N136        N  0.10285140  0.01596298  0.26438797    -0.78400
C137        C  0.08187135  0.00404215  0.26283981     0.82400
N138        N  0.06104356  0.01620448  0.26430384    -0.80100
C139        C  0.10289618  0.24987458  0.44785268     0.79800
N140        N  0.10298406  0.24720761  0.47192518    -0.78500
C141        C  0.08203939  0.24376773  0.48370473     0.82300
N142        N  0.06124061  0.24266961  0.47127837    -0.78400
C143        C  0.06108328  0.24508761  0.44729530     0.82400
N144        N  0.08195244  0.24874605  0.43587738    -0.80100
C145        C  0.35443358  0.46881045  0.44889714     0.79800
N146        N  0.35621545  0.48944777  0.43641748    -0.78500
C147        C  0.35218464  0.51084848  0.44692045     0.82300
N148        N  0.34650229  0.51163080  0.47036320    -0.78400
C149        C  0.34504086  0.49106141  0.48314033     0.82400
N150        N  0.34873598  0.46971908  0.47227907    -0.80100
C151        C  0.13036434  0.46984593  0.25198228     0.79800
N152        N  0.10699330  0.46927863  0.24590958    -0.78500
C153        C  0.09439367  0.48980721  0.24365680     0.82300
N154        N  0.10529058  0.51112346  0.24721718    -0.78400
C155        C  0.12864951  0.51199093  0.25334295     0.82400
N156        N  0.14108253  0.49130247  0.25576789    -0.80100
O157        O  0.29417877  0.73577784  0.17926013    -0.86900
O158        O  0.29058964  0.74355052  0.31407102    -0.87100
O159        O  0.26508752  0.69952865  0.24742771    -0.88700
O160        O  0.26313820  0.77698250  0.24490069    -0.87500
O161        O  0.29052651  0.80735447  0.24403389    -0.87100
O162        O  0.29493604  0.67171523  0.24941848    -0.88400
O163        O  0.26319427  0.74079603  0.28399261    -0.86900
O164        O  0.26490244  0.73567353  0.20764521    -0.86500
Zr165      Zr  0.28388334  0.73880367  0.24612141     2.84300
O166        O  0.30588157  0.76511111  0.26963483    -1.08500
O167        O  0.30915033  0.71427662  0.22390375    -1.09200
C168        C  0.27206662  0.73496962  0.18591491     1.06200
C169        C  0.26903093  0.74267993  0.30612312     1.06200
C170        C  0.27276138  0.67780936  0.24865651     1.09100
C171        C  0.26891934  0.79932901  0.24448404     1.06900
H172        H  0.29743539  0.70676335  0.28221875     0.32500
O173        O  0.30742605  0.71650592  0.27216987    -1.29400
H174        H  0.29757757  0.77179383  0.21078542     0.32200
O175        O  0.30758993  0.76266364  0.22141701    -1.31100
O176        O  0.36741511  0.74564396  0.31634973    -0.86900
O177        O  0.37342700  0.73980909  0.18194965    -0.88400
O178        O  0.33276710  0.67497253  0.28954330    -0.87000
O179        O  0.32805517  0.81032084  0.28303951    -0.87000
O180        O  0.33142566  0.80609300  0.20544751    -0.86700
O181        O  0.33534065  0.67060239  0.21250946    -0.86500
O182        O  0.39969683  0.70341847  0.25317772    -0.86900
O183        O  0.39751690  0.78076486  0.24623398    -0.86400
O184        O  0.37215044  0.67321876  0.25287182    -0.87400
O185        O  0.36838383  0.80931839  0.24363563    -0.86600
O186        O  0.33095593  0.70509004  0.31706573    -0.87000
O187        O  0.33563329  0.69791351  0.18210536    -0.86700
O188        O  0.33346279  0.77579575  0.17810973    -0.86400
O189        O  0.32810461  0.78274078  0.31321063    -0.86800
O190        O  0.39772714  0.74558900  0.28917658    -0.87100
O191        O  0.40059136  0.74167121  0.21240868    -0.88400
Zr192      Zr  0.32969339  0.74292552  0.29556908     2.83100
Zr193      Zr  0.33322615  0.73794168  0.19946186     2.83500
Zr194      Zr  0.33312692  0.69230660  0.24996050     2.84100
Zr195      Zr  0.32995272  0.78878341  0.24523492     2.83400
Zr196      Zr  0.37923156  0.74175163  0.24988673     2.84200
O197        O  0.35526363  0.76369633  0.22377819    -1.09000
O198        O  0.35530756  0.71806045  0.27412787    -1.08500
C199        C  0.38963028  0.74667810  0.31065345     1.06200
C200        C  0.39499701  0.74122837  0.19014928     1.08800
C201        C  0.33208339  0.68282847  0.31109715     1.06400
C202        C  0.32771472  0.80444271  0.30528190     1.06700
C203        C  0.33274783  0.79810400  0.18393256     1.06300
C204        C  0.33617741  0.67627173  0.19026365     1.05900
C205        C  0.39378263  0.68108666  0.25380256     1.06300
C206        C  0.39040129  0.80255172  0.24399733     1.05800
H207        H  0.36804423  0.70584958  0.21668933     0.32500
O208        O  0.35731183  0.71586622  0.22560350    -1.30100
H209        H  0.36326017  0.77764613  0.28106300     0.32500
O210        O  0.35392677  0.76680658  0.27146493    -1.31400
C211        C  0.53420019  0.22714694  0.48021788     0.79800
N212        N  0.55836848  0.22769594  0.47937105    -0.78500
C213        C  0.57132878  0.22822984  0.49991560     0.82300
N214        N  0.55996406  0.22867385  0.52128981    -0.78400
C215        C  0.53576685  0.22850816  0.52215135     0.82400
N216        N  0.52325914  0.22751354  0.50157978    -0.80100
C217        C  0.33453256  0.03579667  0.47999854     0.79800
N218        N  0.32961992  0.01196599  0.47982239    -0.78500
C219        C  0.32675050  0.99985904  0.50063953     0.82300
N220        N  0.32857790  0.01172575  0.52168309    -0.78400
C221        C  0.33370556  0.03543112  0.52204213     0.82400
N222        N  0.33662996  0.04720838  0.50117612    -0.80100
O223        O  0.33246523  0.17385238  0.78300722    -0.86900
O224        O  0.33334730  0.30911417  0.78895073    -0.87100
O225        O  0.37159665  0.23843205  0.81451272    -0.88700
O226        O  0.29417746  0.24050795  0.81502759    -0.87500
O227        O  0.26427773  0.24228189  0.78722135    -0.87100
O228        O  0.39989510  0.23819755  0.78516911    -0.88400
O229        O  0.33324058  0.27925525  0.81683808    -0.86900
O230        O  0.33371733  0.20106123  0.81341253    -0.86500
Zr231      Zr  0.33263360  0.24090388  0.79550805     2.84300
O232        O  0.30835463  0.26639136  0.77311713    -1.08500
O233        O  0.35567927  0.21775497  0.76979395    -1.09200
C234        C  0.33361165  0.17944554  0.80529836     1.06200
C235        C  0.33349783  0.30155757  0.81060418     1.06200
C236        C  0.39331882  0.23714457  0.80711526     1.09100
C237        C  0.27203087  0.24123811  0.80888822     1.06900
H238        H  0.36710082  0.27504238  0.78298089     0.32500
O239        O  0.35696122  0.26572594  0.77259074    -1.29400
H240        H  0.29759871  0.20778733  0.78032490     0.32200
O241        O  0.30747960  0.21822275  0.77084327    -1.31100
O242        O  0.33276230  0.31267772  0.71251216    -0.86900
O243        O  0.33155041  0.17769004  0.70528903    -0.88400
O244        O  0.39963364  0.28191961  0.75016657    -0.87000
O245        O  0.26510542  0.28339364  0.75008890    -0.87000
O246        O  0.26343469  0.20533653  0.74491498    -0.86700
O247        O  0.39921364  0.20305179  0.74405719    -0.86500
O248        O  0.37000806  0.24764062  0.68005680    -0.86900
O249        O  0.29293886  0.24694384  0.68043745    -0.86400
O250        O  0.39943261  0.24502998  0.70828190    -0.87400
O251        O  0.26399526  0.24625174  0.70913009    -0.86600
O252        O  0.37082466  0.31088497  0.75094368    -0.87000
O253        O  0.36905530  0.17539832  0.74366621    -0.86700
O254        O  0.29168542  0.17589455  0.74279718    -0.86400
O255        O  0.29482461  0.31145208  0.75136393    -0.86800
O256        O  0.33192567  0.28539139  0.68222530    -0.87100
O257        O  0.33185340  0.20811254  0.67800277    -0.88400
Zr258      Zr  0.33267887  0.29089802  0.74989109     2.83100
Zr259      Zr  0.33075155  0.19524853  0.74509120     2.83500
Zr260      Zr  0.38025158  0.24255803  0.74695949     2.84100
Zr261      Zr  0.28351664  0.24392580  0.74812646     2.83400
Zr262      Zr  0.33153171  0.24571620  0.69983897     2.84200
O263        O  0.30692498  0.22085865  0.72255747    -1.09000
O264        O  0.35645704  0.26833267  0.72437812    -1.08500
C265        C  0.33241662  0.30695726  0.69030231     1.06200
C266        C  0.33204780  0.18573868  0.68373163     1.08800
C267        C  0.39269550  0.30398354  0.75138879     1.06400
C268        C  0.27273204  0.30518241  0.75107355     1.06700
C269        C  0.26984493  0.18323401  0.74291208     1.06300
C270        C  0.39127459  0.18130953  0.74334787     1.05900
C271        C  0.39205439  0.24694732  0.68661289     1.06300
C272        C  0.27100040  0.24705043  0.68721874     1.05800
H273        H  0.36502360  0.21055215  0.71170586     0.32500
O274        O  0.35535104  0.22002687  0.72223042    -1.30100
H275        H  0.29797721  0.27949852  0.71562154     0.32500
O276        O  0.30776137  0.26880928  0.72497751    -1.31400
C277        C  0.53177932  0.75124380  0.47867694     0.79800
N278        N  0.52030891  0.75252248  0.49983052    -0.78500
C279        C  0.53203526  0.74881996  0.52061851     0.82300
N280        N  0.55565703  0.74373471  0.52011889    -0.78400
C281        C  0.56739975  0.74234853  0.49904940     0.82400
N282        N  0.55539989  0.74603683  0.47838613    -0.80100
C283        C  0.31235692  0.93914839  0.52232200     0.79800
N284        N  0.31166548  0.92670306  0.50166533    -0.78500
C285        C  0.31599985  0.93751788  0.48048265     0.82300
N286        N  0.32096920  0.96133929  0.48005713    -0.78400
C287        C  0.32154559  0.97406969  0.50068220     0.82400
N288        N  0.31742450  0.96283466  0.52169683    -0.80100
C289        C  0.33086948  0.47059327  0.54381693     0.79800
N290        N  0.33613890  0.47061262  0.52033451    -0.78500
C291        C  0.33923783  0.49157592  0.50851551     0.82300
N292        N  0.33722021  0.51269724  0.52035369    -0.78400
C293        C  0.33192903  0.51275415  0.54393255     0.82400
N294        N  0.32885420  0.49167581  0.55534318    -0.80100
C295        C  0.12606670  0.46682342  0.75934571     0.79800
N296        N  0.10259036  0.46755864  0.75377339    -0.78500
C297        C  0.09149327  0.48883858  0.75066542     0.82300
N298        N  0.10404012  0.50951932  0.75279478    -0.78400
C299        C  0.12760193  0.50902264  0.75825313     0.82400
N300        N  0.13841825  0.48758429  0.76158103    -0.80100
O301        O  0.29594530  0.73944253  0.82002184    -0.86900
O302        O  0.29077301  0.73220444  0.68531036    -0.87100
O303        O  0.26396856  0.77502948  0.75364711    -0.88700
O304        O  0.26595975  0.69649330  0.75587780    -0.87500
O305        O  0.29611616  0.66887885  0.75622269    -0.87100
O306        O  0.29219868  0.80446297  0.74983068    -0.88400
O307        O  0.26347718  0.73303773  0.71553265    -0.86900
O308        O  0.26566728  0.73711028  0.79275127    -0.86500
Zr309      Zr  0.28417825  0.73606958  0.75351031     2.84300
O310        O  0.30804665  0.71167584  0.72955364    -1.08500
O311        O  0.30857488  0.76197280  0.77519377    -1.09200
C312        C  0.27361655  0.73850375  0.81428345     1.06200
C313        C  0.26922952  0.73190693  0.69333027     1.06200
C314        C  0.27053606  0.79718025  0.75203650     1.09100
C315        C  0.27388157  0.67482914  0.75684979     1.06900
H316        H  0.29550977  0.76889619  0.71745735     0.32500
O317        O  0.30628657  0.75975595  0.72731054    -1.29400
H318        H  0.30106063  0.70369415  0.78808891     0.32200
O319        O  0.31011329  0.71356365  0.77732332    -1.31100
O320        O  0.36822544  0.73547627  0.68254494    -0.86900
O321        O  0.37369514  0.74067146  0.81729499    -0.88400
O322        O  0.32716142  0.80351285  0.70935399    -0.87000
O323        O  0.33287958  0.66864115  0.71509940    -0.87000
O324        O  0.33764033  0.67131324  0.79236790    -0.86700
O325        O  0.33042847  0.80652882  0.78718900    -0.86500
O326        O  0.39945980  0.77830100  0.74721743    -0.86900
O327        O  0.40153008  0.70143272  0.75064051    -0.86400
O328        O  0.36922899  0.80574009  0.74690598    -0.87400
O329        O  0.37394203  0.67132623  0.75309052    -0.86600
O330        O  0.32697050  0.77309811  0.68210045    -0.87000
O331        O  0.33375352  0.77902996  0.81728937    -0.86700
O332        O  0.33701235  0.70139415  0.81996857    -0.86400
O333        O  0.33007886  0.69623517  0.68509994    -0.86800
O334        O  0.39847039  0.73852884  0.70979918    -0.87100
O335        O  0.40080333  0.74015370  0.78690217    -0.88400
Zr336      Zr  0.33015742  0.73542219  0.70343292     2.83100
Zr337      Zr  0.33423632  0.73956266  0.79916823     2.83500
Zr338      Zr  0.33087139  0.78555980  0.74900557     2.84100
Zr339      Zr  0.33423789  0.68949320  0.75320530     2.83400
Zr340      Zr  0.38024256  0.73929088  0.74901638     2.84200
O341        O  0.35819825  0.71551509  0.77511809    -1.09000
O342        O  0.35468968  0.76164000  0.72473770    -1.08500
C343        C  0.39048441  0.73686072  0.68832903     1.06200
C344        C  0.39517402  0.74046327  0.80911318     1.08800
C345        C  0.32594657  0.79541083  0.68783828     1.06400
C346        C  0.33131544  0.67460513  0.69293096     1.06700
C347        C  0.33819974  0.67914032  0.81393886     1.06300
C348        C  0.33178491  0.80061880  0.80940722     1.05900
C349        C  0.39148977  0.79992410  0.74654499     1.06300
C350        C  0.39561440  0.67916598  0.75214991     1.05800
H351        H  0.36661273  0.77422795  0.78240824     0.32500
O352        O  0.35662348  0.76354413  0.77327486    -1.30100
H353        H  0.36619253  0.70306329  0.71719489     0.32500
O354        O  0.35634251  0.71312237  0.72703976    -1.31400
C355        C  0.84727811  0.50900743  0.45292811     0.79800
N356        N  0.84504255  0.48824257  0.44073199    -0.78500
C357        C  0.84600257  0.46678101  0.45192162     0.82300
N358        N  0.84927832  0.46615762  0.47590212    -0.78400
C359        C  0.85129750  0.48687232  0.48845685     0.82400
N360        N  0.85032832  0.50819760  0.47686197    -0.80100
C361        C  0.03277980  0.50818331  0.22939927     0.79800
N362        N  0.05631691  0.50927624  0.23488162    -0.78500
C363        C  0.06917558  0.48882606  0.23722733     0.82300
N364        N  0.05840015  0.46727568  0.23441469    -0.78400
C365        C  0.03488885  0.46599462  0.22909141     0.82400
N366        N  0.02231736  0.48651092  0.22660520    -0.80100
C367        C  0.60298288  0.53671645  0.26123304     0.79800
N368        N  0.58179416  0.54825372  0.25965838    -0.78500
C369        C  0.56088615  0.53630360  0.26231595     0.82300
N370        N  0.56133728  0.51235790  0.26648823    -0.78400
C371        C  0.58249774  0.50060916  0.26796852     0.82400
N372        N  0.60317228  0.51287609  0.26545231    -0.80100
C373        C  0.60503146  0.71839341  0.04799006     0.79800
N374        N  0.60490073  0.72208723  0.02411540    -0.78500
C375        C  0.58397489  0.72487750  0.01227716     0.82300
N376        N  0.56310346  0.72436728  0.02450344    -0.78400
C377        C  0.56301216  0.72083770  0.04840462     0.82400
N378        N  0.58404652  0.71784473  0.05989659    -0.80100
O379        O  0.83400082  0.80427702  0.20895280    -0.86900
O380        O  0.83037239  0.66856640  0.21529601    -0.87100
O381        O  0.87007972  0.73514285  0.18228320    -0.88700
O382        O  0.79246034  0.73537324  0.18400151    -0.87500
O383        O  0.76478559  0.73713914  0.21388330    -0.87100
O384        O  0.89918115  0.73759921  0.21083861    -0.88400
O385        O  0.82932086  0.69640503  0.18537940    -0.86900
O386        O  0.83267808  0.77422582  0.18132226    -0.86500
Zr387      Zr  0.83173138  0.73619422  0.20272752     2.84300
O388        O  0.80841644  0.71310417  0.22849305    -1.08500
O389        O  0.85628613  0.76128574  0.22523388    -1.09200
C390        C  0.83372835  0.79651178  0.18731089     1.06200
C391        C  0.82893352  0.67468335  0.19320252     1.06200
C392        C  0.89207114  0.73634213  0.18904511     1.09100
C393        C  0.77081812  0.73610690  0.19173934     1.03700
H394        H  0.86611454  0.70247653  0.21721436     0.32500
O395        O  0.85643468  0.71282018  0.22697197    -1.29400
H396        H  0.79827400  0.77107864  0.21597529     0.32200
O397        O  0.80839321  0.76156125  0.22613246    -1.31100
O398        O  0.83494967  0.67260842  0.29226527    -0.86900
O399        O  0.83416476  0.80804885  0.28613456    -0.88400
O400        O  0.90112937  0.70004995  0.25043830    -0.87000
O401        O  0.76585670  0.70011906  0.25559494    -0.87000
O402        O  0.76523153  0.77655187  0.25023814    -0.86700
O403        O  0.89989815  0.77655267  0.24764738    -0.86500
O404        O  0.87374993  0.74030398  0.31792513    -0.86900
O405        O  0.79579921  0.74140872  0.31875464    -0.86400
O406        O  0.90129406  0.73860338  0.28797041    -0.87400
O407        O  0.76598110  0.74092148  0.29090428    -0.86600
O408        O  0.87271380  0.67067348  0.25209541    -0.87000
O409        O  0.87185788  0.80625261  0.24745293    -0.86700
O410        O  0.79360989  0.80588770  0.24776557    -0.86400
O411        O  0.79399365  0.67043982  0.25609815    -0.86800
O412        O  0.83508174  0.70197443  0.32067749    -0.87100
O413        O  0.83519510  0.78054916  0.31639468    -0.88400
Zr414      Zr  0.83318031  0.68989753  0.25283525     2.83100
Zr415      Zr  0.83297509  0.78659438  0.24865274     2.83500
Zr416      Zr  0.88055216  0.73803012  0.24979600     2.84100
Zr417      Zr  0.78543692  0.73846672  0.25215244     2.83400
Zr418      Zr  0.83449583  0.74025746  0.29915154     2.84200
O419        O  0.80983065  0.76363356  0.27471718    -1.09000
O420        O  0.85766600  0.71486157  0.27554371    -1.08500
C421        C  0.83501926  0.67981429  0.31404193     1.06200
C422        C  0.83485885  0.80225795  0.30834468     1.08800
C423        C  0.89464128  0.67796634  0.25118350     1.06400
C424        C  0.77221493  0.67803513  0.25694856     1.06700
C425        C  0.77170922  0.79855973  0.24829218     1.06300
C426        C  0.89360202  0.79869124  0.24712509     1.05900
C427        C  0.89537537  0.73948092  0.31014492     1.06300
C428        C  0.77360253  0.74162116  0.31259029     1.05800
H429        H  0.86794304  0.77365320  0.28250737     0.32500
O430        O  0.85760196  0.76341013  0.27332330    -1.30100
H431        H  0.80029136  0.70575492  0.28718488     0.32500
O432        O  0.80997551  0.71518418  0.27655450    -1.31400
C433        C  0.62770552  0.72624212  0.51974783     0.79800
N434        N  0.63967755  0.72477704  0.49884806    -0.78500
C435        C  0.62850973  0.72911268  0.47782064     0.82300
N436        N  0.60496907  0.73488445  0.47790234    -0.78400
C437        C  0.59281913  0.73628824  0.49874262     0.82400
N438        N  0.60430559  0.73212106  0.51954705    -0.80100
C439        C  0.83235579  0.94586667  0.51875359     0.79800
N440        N  0.82632904  0.96929469  0.51759732    -0.78500
C441        C  0.82419542  0.98050274  0.49625383     0.82300
N442        N  0.82788615  0.96802850  0.47577235    -0.78400
C443        C  0.83413941  0.94454122  0.47675644     0.82400
N444        N  0.83630599  0.93375421  0.49827633    -0.80100
C445        C  0.60287231  0.53487462  0.75006314     0.79800
N446        N  0.60450328  0.51143436  0.75631032    -0.78500
C447        C  0.58435032  0.49830885  0.75995639     0.82300
N448        N  0.56253523  0.50889639  0.75762650    -0.78400
C449        C  0.56086053  0.53235068  0.75140649     0.82400
N450        N  0.58109471  0.54492171  0.74771537    -0.80100
C451        C  0.56238342  0.73819852  0.95158945     0.79800
N452        N  0.58322084  0.74120163  0.93978390    -0.78500
C453        C  0.60445107  0.73843975  0.95103607     0.82300
N454        N  0.60469444  0.73277048  0.97456256    -0.78400
C455        C  0.58389124  0.73000155  0.98664381     0.82400
N456        N  0.56283569  0.73259436  0.97503952    -0.80100
C457        C  0.85828194  0.50742082  0.55069174     0.79800
N458        N  0.86101574  0.48631254  0.56210476    -0.78500
C459        C  0.86030408  0.46527712  0.55031299     0.82300
N460        N  0.85682719  0.46532825  0.52636647    -0.78400
C461        C  0.85440114  0.48647267  0.51449066     0.82400
N462        N  0.85498616  0.50746999  0.52677009    -0.80100
C463        C  0.03066470  0.51169650  0.74095952     0.79800
N464        N  0.01839371  0.49103649  0.73786634    -0.78500
C465        C  0.02956311  0.46957928  0.73892324     0.82300
N466        N  0.05337562  0.46886932  0.74311989    -0.78400
C467        C  0.06588283  0.48949372  0.74590090     0.82400
N468        N  0.05446210  0.51079864  0.74490891    -0.80100
O469        O  0.86999439  0.74104105  0.81375622    -0.86900
O470        O  0.87077857  0.74380534  0.67911130    -0.87100
O471        O  0.90093119  0.70413066  0.74458934    -0.88700
O472        O  0.89602798  0.78271391  0.74929370    -0.87500
O473        O  0.86583772  0.81028462  0.74850742    -0.87100
O474        O  0.87270905  0.67445052  0.74503271    -0.88400
O475        O  0.89874612  0.74708379  0.70868281    -0.86900
O476        O  0.89910633  0.74224351  0.78527549    -0.86500
Zr477      Zr  0.87933435  0.74226350  0.74700064     2.84300
O478        O  0.85464704  0.76544376  0.72276395    -1.08500
O479        O  0.85629159  0.71666276  0.77069920    -1.09200
C480        C  0.89207070  0.74188395  0.80707039     1.06200
C481        C  0.89227762  0.74690509  0.68665000     1.06200
C482        C  0.89438442  0.68193793  0.74371553     1.09100
C483        C  0.88803802  0.80442045  0.74971065     1.06900
H484        H  0.86731078  0.70773086  0.71271372     0.32500
O485        O  0.85685948  0.71692486  0.72275132    -1.29400
H486        H  0.86281459  0.77518751  0.78078669     0.32200
O487        O  0.85356839  0.76488525  0.77055460    -1.31100
O488        O  0.79423755  0.73721974  0.67829725    -0.86900
O489        O  0.79129150  0.73841756  0.81296656    -0.88400
O490        O  0.83429663  0.67230472  0.70755194    -0.87000
O491        O  0.82965022  0.80825628  0.70741376    -0.87000
O492        O  0.82738361  0.80648118  0.78539466    -0.86700
O493        O  0.83536866  0.67185074  0.78514441    -0.86500
O494        O  0.76522992  0.69774143  0.74554492    -0.86900
O495        O  0.76148154  0.77457837  0.74378007    -0.86400
O496        O  0.79537858  0.67020024  0.74632334    -0.87400
O497        O  0.78868134  0.80511677  0.74490211    -0.86600
O498        O  0.83478537  0.70153621  0.67895830    -0.87000
O499        O  0.83290159  0.70073529  0.81388806    -0.86700
O500        O  0.82866770  0.77769498  0.81440392    -0.86400
O501        O  0.83137775  0.77888258  0.67916134    -0.86800
O502        O  0.76445431  0.73492668  0.70594478    -0.87100
O503        O  0.76349204  0.73793194  0.78306957    -0.88400
Zr504      Zr  0.83230462  0.74007894  0.69854491     2.83100
Zr505      Zr  0.83069699  0.73943707  0.79427120     2.83500
Zr506      Zr  0.83333269  0.69168649  0.74639982     2.84100
Zr507      Zr  0.82868745  0.78801622  0.74615062     2.83400
Zr508      Zr  0.78344153  0.73725581  0.74496187     2.84200
O509        O  0.80574638  0.76241337  0.76972125    -1.09000
O510        O  0.80889381  0.71440628  0.72155276    -1.08500
C511        C  0.77215969  0.73529876  0.68431766     1.06200
C512        C  0.76957622  0.73821344  0.80518524     1.08800
C513        C  0.83499760  0.67948686  0.68570357     1.06400
C514        C  0.83053392  0.80100774  0.68559001     1.06700
C515        C  0.82782130  0.79962421  0.80735190     1.06300
C516        C  0.83453054  0.67877944  0.80705097     1.05900
C517        C  0.77310425  0.67606865  0.74617662     1.06300
C518        C  0.76714288  0.79692805  0.74409945     1.05800
H519        H  0.79817379  0.70390777  0.77984322     0.32500
O520        O  0.80777257  0.71430658  0.77003764    -1.30100
H521        H  0.79614264  0.77231963  0.71115427     0.32500
O522        O  0.80632459  0.76294990  0.72144107    -1.31400
C523        C  0.56350850  0.43773996  0.27548823     0.79800
N524        N  0.56271761  0.46177804  0.27228750    -0.78500
C525        C  0.58326376  0.47467885  0.27169101     0.82300
N526        N  0.60465815  0.46340155  0.27395712    -0.78400
C527        C  0.60543523  0.43939978  0.27735038     0.82400
N528        N  0.58485562  0.42687490  0.27806899    -0.80100
C529        C  0.60336396  0.25845014  0.04594719     0.79800
N530        N  0.60228197  0.25381602  0.02238175    -0.78500
C531        C  0.58099098  0.25246677  0.01109343     0.82300
N532        N  0.56047826  0.25530563  0.02366368    -0.78400
C533        C  0.56146114  0.26011434  0.04736847     0.82400
N534        N  0.58295887  0.26174150  0.05827607    -0.80100
O535        O  0.86744432  0.23751217  0.17748130    -0.86900
O536        O  0.87191754  0.23891776  0.31177843    -0.87100
O537        O  0.89919464  0.27705123  0.24204550    -0.88700
O538        O  0.89727630  0.19977764  0.24445722    -0.87500
O539        O  0.86912844  0.17021532  0.24702467    -0.87100
O540        O  0.87023095  0.30582320  0.24279011    -0.88400
O541        O  0.89924816  0.23838473  0.28161715    -0.86900
O542        O  0.89740681  0.23768955  0.20516958    -0.86500
Zr543      Zr  0.87849166  0.23879636  0.24389166     2.84300
O544        O  0.85529789  0.21539200  0.26927630    -1.08500
O545        O  0.85421901  0.26259808  0.21992222    -1.09200
C546        C  0.88962458  0.23728416  0.18359175     1.06200
C547        C  0.89347748  0.23833950  0.30379058     1.06200
C548        C  0.89219544  0.29902203  0.24204716     1.09100
C549        C  0.89092655  0.17765192  0.24586828     1.06900
H550        H  0.86627837  0.27374892  0.27764145     0.32500
O551        O  0.85585715  0.26370506  0.26830178    -1.29400
H552        H  0.86357244  0.20367260  0.21142293     0.32200
O553        O  0.85393749  0.21386338  0.22135496    -1.31100
O554        O  0.79412302  0.24196249  0.31372045    -0.86900
O555        O  0.79037706  0.23861122  0.17886592    -0.88400
O556        O  0.83250422  0.30756503  0.28245556    -0.87000
O557        O  0.83230719  0.17238228  0.28593637    -0.87000
O558        O  0.82984536  0.17036523  0.20838170    -0.86700
O559        O  0.83002983  0.30639738  0.20516159    -0.86500
O560        O  0.76350532  0.27826130  0.24824209    -0.86900
O561        O  0.76279584  0.20087714  0.24632958    -0.86400
O562        O  0.79265332  0.30692029  0.24608809    -0.87400
O563        O  0.79119815  0.17147123  0.24662453    -0.86600
O564        O  0.83342409  0.27971408  0.31235100    -0.87000
O565        O  0.82909828  0.27609593  0.17782731    -0.86700
O566        O  0.82888120  0.19857069  0.17879101    -0.86400
O567        O  0.83239434  0.20191379  0.31422730    -0.86800
O568        O  0.76414633  0.23988031  0.28606417    -0.87100
O569        O  0.76280165  0.23882064  0.20885584    -0.88400
Zr570      Zr  0.83240366  0.24023679  0.29356464     2.83100
Zr571      Zr  0.82924331  0.23769724  0.19781899     2.83500
Zr572      Zr  0.83113924  0.28715367  0.24425709     2.84100
Zr573      Zr  0.83047466  0.19057664  0.24673744     2.83400
Zr574      Zr  0.78294783  0.23926485  0.24712269     2.84200
O575        O  0.80577310  0.21425807  0.22295348    -1.09000
O576        O  0.80779011  0.26389518  0.26970085    -1.08500
C577        C  0.77193835  0.24130126  0.30762065     1.06200
C578        C  0.76881345  0.23901270  0.18672094     1.08800
C579        C  0.83328614  0.30150573  0.30462101     1.06400
C580        C  0.83263432  0.17979419  0.30765171     1.06700
C581        C  0.82946789  0.17674716  0.18629519     1.06300
C582        C  0.82935824  0.29840181  0.18360196     1.05900
C583        C  0.77071162  0.30020604  0.24771144     1.06300
C584        C  0.76933886  0.17878161  0.24609240     1.05800
H585        H  0.79586275  0.27259927  0.21195449     0.32500
O586        O  0.80606263  0.26272309  0.22169922    -1.30100
H587        H  0.79754960  0.20563956  0.28145921     0.32500
O588        O  0.80733111  0.21532853  0.27109936    -1.31400
C589        C  0.56671715  0.43676269  0.77698392     0.79800
N590        N  0.56568353  0.46002539  0.77016897    -0.78500
C591        C  0.58600972  0.47288908  0.76692669     0.82300
N592        N  0.60762209  0.46215434  0.77017561    -0.78400
C593        C  0.60874497  0.43885982  0.77719811     0.82400
N594        N  0.58824680  0.42654135  0.78050738    -0.80100
C595        C  0.55944205  0.24240751  0.94970660     0.79800
N596        N  0.58043874  0.24068406  0.93790895    -0.78500
C597        C  0.60154427  0.24256792  0.94948501     0.82300
N598        N  0.60148700  0.24625879  0.97332261    -0.78400
C599        C  0.58059861  0.24808168  0.98540193     0.82400
N600        N  0.55960707  0.24619151  0.97354444    -0.80100
C601        C  0.63495633  0.22548610  0.51787090     0.79800
N602        N  0.64554282  0.22621419  0.49629252    -0.78500
C603        C  0.63263749  0.22781498  0.47602091     0.82300
N604        N  0.60853866  0.22860682  0.47739905    -0.78400
C605        C  0.59751338  0.22796516  0.49888843     0.82400
N606        N  0.61077860  0.22648018  0.51917645    -0.80100
C607        C  0.80796691  0.04083314  0.47425276     0.79800
N608        N  0.80457526  0.05245180  0.49505100    -0.78500
C609        C  0.80786113  0.04137493  0.51617146     0.82300
N610        N  0.81446943  0.01803471  0.51643272    -0.78400
C611        C  0.81755780  0.00592819  0.49566333     0.82400
N612        N  0.81460526  0.01748085  0.47456399    -0.80100
O613        O  0.87313714  0.23350175  0.81715144    -0.86900
O614        O  0.87185430  0.23501059  0.68136637    -0.87100
O615        O  0.89875503  0.19326908  0.75048563    -0.88700
O616        O  0.90390310  0.27087673  0.74892566    -0.87500
O617        O  0.87634433  0.30108509  0.74870655    -0.87100
O618        O  0.86838088  0.16588501  0.75114552    -0.88400
O619        O  0.90031234  0.23392289  0.71060812    -0.86900
O620        O  0.90170527  0.23281911  0.78806697    -0.86500
Zr621      Zr  0.88161378  0.23337921  0.74971968     2.84300
O622        O  0.85871283  0.25850175  0.72578391    -1.08500
O623        O  0.85648077  0.21092024  0.77423889    -1.09200
C624        C  0.89501986  0.23261151  0.81000953     1.06200
C625        C  0.89373635  0.23464179  0.68858356     1.06200
C626        C  0.89068625  0.17161033  0.75105826     1.09100
C627        C  0.89792546  0.29316834  0.74836465     1.06900
H628        H  0.86566536  0.19958321  0.71604559     0.32500
O629        O  0.85635170  0.21017906  0.72589497    -1.29400
H630        H  0.86996076  0.26847113  0.78359183     0.32200
O631        O  0.85933524  0.25903592  0.77386452    -1.31100
O632        O  0.79442121  0.23600917  0.68249403    -0.86900
O633        O  0.79486705  0.23826161  0.81790669    -0.88400
O634        O  0.82819507  0.16749487  0.71269520    -0.87000
O635        O  0.83867293  0.30360287  0.71090611    -0.87000
O636        O  0.83800963  0.30433249  0.78844532    -0.86700
O637        O  0.83100091  0.16916454  0.78963221    -0.86500
O638        O  0.76372964  0.20178203  0.75068128    -0.86900
O639        O  0.76871646  0.27891827  0.75153379    -0.86400
O640        O  0.79068997  0.17107083  0.75277382    -0.87400
O641        O  0.79912485  0.30623021  0.75059708    -0.86600
O642        O  0.83041723  0.19609631  0.68357031    -0.87000
O643        O  0.83271669  0.19818818  0.81829526    -0.86700
O644        O  0.83683553  0.27533238  0.81725761    -0.86400
O645        O  0.83528992  0.27452642  0.68234753    -0.86800
O646        O  0.76583165  0.23906301  0.71133665    -0.87100
O647        O  0.76699919  0.23949101  0.78814135    -0.88400
Zr648      Zr  0.83344356  0.23558763  0.70181964     2.83100
Zr649      Zr  0.83393710  0.23653613  0.79814818     2.83500
Zr650      Zr  0.83092049  0.18799303  0.75062687     2.84100
Zr651      Zr  0.83648144  0.28423497  0.74973817     2.83400
Zr652      Zr  0.78608194  0.23900441  0.74971877     2.84200
O653        O  0.81115451  0.26182604  0.77397041    -1.09000
O654        O  0.80829492  0.21304153  0.72612601    -1.08500
C655        C  0.77252916  0.23743541  0.68944551     1.06200
C656        C  0.77310043  0.23897682  0.81023234     1.08800
C657        C  0.82836233  0.17421751  0.69074350     1.06400
C658        C  0.83772180  0.29648223  0.68907190     1.06700
C659        C  0.83800279  0.29732363  0.81037787     1.06300
C660        C  0.83181436  0.17620445  0.81146882     1.05900
C661        C  0.76921075  0.17946176  0.75246351     1.06300
C662        C  0.77686482  0.30053145  0.75174030     1.05800
H663        H  0.79805519  0.20441176  0.78437010     0.32500
O664        O  0.80846743  0.21371088  0.77429017    -1.30100
H665        H  0.80151672  0.27215753  0.71550166     0.32500
O666        O  0.81098730  0.26171633  0.72539087    -1.31400
O667        O  0.29423742  0.23520246  0.18224308    -0.86900
O668        O  0.29577996  0.24343036  0.31646306    -0.87100
O669        O  0.26411731  0.20465651  0.25044482    -0.88700
O670        O  0.26717357  0.28206772  0.24796448    -0.87500
O671        O  0.29747996  0.30949186  0.24660960    -0.87100
O672        O  0.29139341  0.17421472  0.25137087    -0.88400
O673        O  0.26622197  0.24384738  0.28828257    -0.86900
O674        O  0.26511328  0.23901790  0.21048988    -0.86500
Zr675      Zr  0.28516573  0.24232654  0.24926385     2.84300
O676        O  0.31048500  0.26629603  0.27220306    -1.08500
O677        O  0.30820076  0.21647058  0.22623896    -1.09200
C678        C  0.27227437  0.23575450  0.18886639     1.06200
C679        C  0.27365169  0.24389458  0.31005559     1.06200
C680        C  0.26981138  0.18235752  0.25110024     1.09100
C681        C  0.27525010  0.30369484  0.24698115     1.06900
H682        H  0.29854835  0.20865293  0.28442160     0.32500
O683        O  0.30859777  0.21795010  0.27397643    -1.29400
H684        H  0.29948306  0.27399074  0.21373271     0.32200
O685        O  0.30951292  0.26436248  0.22388424    -1.31100
O686        O  0.37361351  0.24021657  0.31525652    -0.86900
O687        O  0.37099901  0.23806064  0.18050689    -0.88400
O688        O  0.33320395  0.17350187  0.29036734    -0.87000
O689        O  0.33696044  0.30893328  0.28444564    -0.87000
O690        O  0.33221807  0.30676094  0.20768485    -0.86700
O691        O  0.32876518  0.17178091  0.21225004    -0.86500
O692        O  0.39951223  0.19903850  0.24725550    -0.86900
O693        O  0.40207657  0.27744852  0.24672289    -0.86400
O694        O  0.36935703  0.17135234  0.24844994    -0.87400
O695        O  0.37388752  0.30698887  0.24417339    -0.86600
O696        O  0.33390085  0.20398279  0.31751948    -0.87000
O697        O  0.33179365  0.19969356  0.18253218    -0.86700
O698        O  0.33077054  0.27653206  0.18032132    -0.86400
O699        O  0.33673658  0.28144919  0.31467596    -0.86800
O700        O  0.40214567  0.23894551  0.28617185    -0.87100
O701        O  0.40051622  0.23842802  0.20867242    -0.88400
Zr702      Zr  0.33430060  0.24197915  0.29644755     2.83100
Zr703      Zr  0.33286760  0.23860786  0.20112219     2.83500
Zr704      Zr  0.33136066  0.19202730  0.25068422     2.84100
Zr705      Zr  0.33499941  0.28816733  0.24663113     2.83400
Zr706      Zr  0.38165692  0.23876969  0.24781960     2.84200
O707        O  0.35836942  0.26303741  0.22311625    -1.09000
O708        O  0.35706858  0.21621195  0.27304273    -1.08500
C709        C  0.39550398  0.23932777  0.30816568     1.06200
C710        C  0.39310972  0.23833134  0.18688738     1.08800
C711        C  0.33375885  0.18159818  0.31193682     1.06400
C712        C  0.33770938  0.30307221  0.30663074     1.06700
C713        C  0.33041279  0.29879270  0.18624782     1.06300
C714        C  0.32971400  0.17806845  0.19012764     1.05900
C715        C  0.39155425  0.17734630  0.24722382     1.06300
C716        C  0.39561742  0.29959929  0.24525383     1.05800
H717        H  0.36546874  0.20393234  0.21550879     0.32500
O718        O  0.35618457  0.21440061  0.22548829    -1.30100
H719        H  0.36923476  0.27435207  0.28064560     0.32500
O720        O  0.35877595  0.26438205  0.27126979    -1.31400
C721        C  0.80587545  0.05554624  0.53827159    -0.03600
C722        C  0.79357236  0.07737879  0.53787564    -0.06200
C723        C  0.79414934  0.09261887  0.55741891    -0.21300
C724        C  0.80703361  0.08653368  0.57790684     0.24500
C725        C  0.81869706  0.06423974  0.57870807    -0.18800
C726        C  0.81795600  0.04883219  0.55909830    -0.08800
C727        C  0.80879927  0.10472715  0.59708869    -0.19100
C728        C  0.81798273  0.10078493  0.61886057    -0.23900
C729        C  0.82031051  0.11994986  0.63699520     0.26500
C730        C  0.82142991  0.11363921  0.66109779    -0.20700
C731        C  0.82403576  0.13117054  0.67860098    -0.10300
C732        C  0.82579859  0.15545477  0.67232142    -0.10800
C733        C  0.82488686  0.16171442  0.64815605    -0.03800
C734        C  0.82230458  0.14421362  0.63070641    -0.18900
H735        H  0.78393545  0.08302830  0.52216342     0.10200
H736        H  0.78493461  0.10957399  0.55625687     0.10300
H737        H  0.82911769  0.05886569  0.59394135     0.09900
H738        H  0.82774904  0.03219819  0.55984948     0.11000
H739        H  0.80178994  0.12230668  0.59296683     0.11100
H740        H  0.82331991  0.08293433  0.62405813     0.13000
H741        H  0.82015560  0.09507833  0.66641161     0.09600
H742        H  0.82469405  0.12565346  0.69703331     0.11700
H743        H  0.82629330  0.18019166  0.64262135     0.08300
H744        H  0.82240237  0.14983306  0.61232698     0.11000
C745        C  0.65014348  0.22303176  0.53930916    -0.03600
C746        C  0.67357499  0.21459489  0.53682364    -0.06200
C747        C  0.68872041  0.21306039  0.55637715    -0.21300
C748        C  0.68109437  0.22032102  0.57890308     0.24500
C749        C  0.65744195  0.22820343  0.58169663    -0.18800
C750        C  0.64205551  0.22944465  0.56203264    -0.08800
C751        C  0.69865518  0.21946868  0.59865643    -0.19100
C752        C  0.69803211  0.23390419  0.61777512    -0.23900
C753        C  0.71745758  0.23470863  0.63582836     0.26500
C754        C  0.71242136  0.24319151  0.65872054    -0.20700
C755        C  0.73024271  0.24414415  0.67613020    -0.10300
C756        C  0.75366245  0.23699712  0.67090109    -0.10800
C757        C  0.75885169  0.22919514  0.64776536    -0.03800
C758        C  0.74102700  0.22810994  0.63043363    -0.18900
H759        H  0.68034345  0.20919036  0.51965309     0.10200
H760        H  0.70673365  0.20670031  0.55375151     0.10300
H761        H  0.65074744  0.23330795  0.59895632     0.09900
H762        H  0.62405485  0.23585360  0.56451383     0.11000
H763        H  0.71353495  0.20734652  0.59644490     0.11100
H764        H  0.68303628  0.24583602  0.62025251     0.13000
H765        H  0.69455986  0.24884010  0.66323636     0.09600
H766        H  0.72567368  0.25055713  0.69367580     0.11700
H767        H  0.77670900  0.22373016  0.64304006     0.08300
H768        H  0.74598857  0.22246778  0.61276810     0.11000
C769        C  0.75307853  0.23901849  0.82749738    -0.03600
C770        C  0.72959400  0.23760502  0.81883930    -0.06200
C771        C  0.71027717  0.23848241  0.83417993    -0.21300
C772        C  0.71363123  0.24052673  0.85871910     0.24500
C773        C  0.73704595  0.24136645  0.86775698    -0.18800
C774        C  0.75664249  0.24064958  0.85221522    -0.08800
C775        C  0.69192035  0.24291515  0.87355292    -0.19100
C776        C  0.69026151  0.23691834  0.89666158    -0.23900
C777        C  0.66730257  0.23817963  0.90993255     0.26500
C778        C  0.66766110  0.24034443  0.93477516    -0.20700
C779        C  0.64639927  0.24175870  0.94769738    -0.10300
C780        C  0.62423972  0.24081436  0.93604406    -0.10800
C781        C  0.62389904  0.23811381  0.91121747    -0.03800
C782        C  0.64508094  0.23666787  0.89835451    -0.18900
H783        H  0.72593133  0.23604537  0.80001224     0.10200
H784        H  0.69248882  0.23767931  0.82673603     0.10300
H785        H  0.74026874  0.24327137  0.88660998     0.09900
H786        H  0.77446959  0.24174283  0.85948177     0.11000
H787        H  0.67619828  0.24939849  0.86439727     0.11100
H788        H  0.70599655  0.23096375  0.90617957     0.13000
H789        H  0.68446391  0.24120554  0.94420318     0.09600
H790        H  0.64735183  0.24362385  0.96681519     0.11700
H791        H  0.60721408  0.23702541  0.90160848     0.08300
H792        H  0.64380439  0.23392163  0.87939171     0.11000
C793        C  0.75941141  0.32031080  0.75389460    -0.03600
C794        C  0.76651110  0.34420048  0.75056120    -0.06200
C795        C  0.75020290  0.36287462  0.75321345    -0.21300
C796        C  0.72658529  0.35817353  0.75969958     0.24500
C797        C  0.71937224  0.33428430  0.76284219    -0.18800
C798        C  0.73559404  0.31558964  0.75996147    -0.08800
C799        C  0.70958329  0.37836178  0.76216234    -0.19100
C800        C  0.69155344  0.37778205  0.77786654    -0.23900
C801        C  0.67217652  0.39585306  0.77951757     0.26500
C802        C  0.65179354  0.38941848  0.79231272    -0.20700
C803        C  0.63181685  0.40410252  0.79248082    -0.10300
C804        C  0.63162272  0.42585150  0.77996213    -0.10800
C805        C  0.65258641  0.43328607  0.76851958    -0.03800
C806        C  0.67272630  0.41837868  0.76821775    -0.18900
H807        H  0.78468894  0.34851471  0.74584007     0.10200
H808        H  0.75612088  0.38108839  0.75047645     0.10300
H809        H  0.70110248  0.32993518  0.76712591     0.09900
H810        H  0.72947636  0.29743945  0.76266924     0.11000
H811        H  0.71217034  0.39377437  0.75078791     0.11100
H812        H  0.69011555  0.36237076  0.78952495     0.13000
H813        H  0.65090307  0.37241157  0.80148161     0.09600
H814        H  0.61614962  0.39794227  0.80185520     0.11700
H815        H  0.65306416  0.45004619  0.75891349     0.08300
H816        H  0.68832836  0.42439649  0.75873791     0.11000
C817        C  0.75421204  0.24211678  0.32698711    -0.03600
C818        C  0.76085698  0.25067868  0.34945645    -0.06200
C819        C  0.74459476  0.25084853  0.36807856    -0.21300
C820        C  0.72130355  0.24235318  0.36486269     0.24500
C821        C  0.71446250  0.23394378  0.34228003    -0.18800
C822        C  0.73077340  0.23397043  0.32349178    -0.08800
C823        C  0.70557734  0.24186395  0.38602183    -0.19100
C824        C  0.68307993  0.23352651  0.38665071    -0.23900
C825        C  0.66998323  0.23145885  0.40944440     0.26500
C826        C  0.64508982  0.23356997  0.40987090    -0.20700
C827        C  0.63271226  0.23220649  0.43143210    -0.10300
C828        C  0.64508906  0.22854265  0.45287718    -0.10800
C829        C  0.66991358  0.22564408  0.45220730    -0.03800
C830        C  0.68215409  0.22686730  0.43080463    -0.18900
H831        H  0.77870368  0.25725652  0.35271511     0.10200
H832        H  0.75041370  0.25738811  0.38524510     0.10300
H833        H  0.69679191  0.22709059  0.33895930     0.09900
H834        H  0.72518435  0.22714383  0.30637092     0.11000
H835        H  0.71336809  0.24854994  0.40238644     0.11100
H836        H  0.67391215  0.22830609  0.37052183     0.13000
H837        H  0.63528125  0.23669041  0.39357858     0.09600
H838        H  0.61355359  0.23428008  0.43132810     0.11700
H839        H  0.68004081  0.22234036  0.46826401     0.08300
H840        H  0.70118499  0.22393181  0.43109520     0.11000
C841        C  0.83283329  0.16128651  0.32632851    -0.03600
C842        C  0.84226703  0.13854488  0.32158736    -0.06200
C843        C  0.84091169  0.12039142  0.33856800    -0.21300
C844        C  0.82964694  0.12446779  0.36036129     0.24500
C845        C  0.82101762  0.14749715  0.36548414    -0.18800
C846        C  0.82266935  0.16575426  0.34863360    -0.08800
C847        C  0.82756186  0.10458872  0.37763786    -0.19100
C848        C  0.80904247  0.10283847  0.39263585    -0.23900
C849        C  0.80743890  0.08500407  0.41204121     0.26500
C850        C  0.79345596  0.09076828  0.43177974    -0.20700
C851        C  0.79286824  0.07579691  0.45152432    -0.10300
C852        C  0.80603872  0.05448674  0.45188207    -0.10800
C853        C  0.81895266  0.04789348  0.43159459    -0.03800
C854        C  0.81972716  0.06307674  0.41180312    -0.18900
H855        H  0.85055467  0.13474394  0.30465399     0.10200
H856        H  0.84811044  0.10294619  0.33443630     0.10300
H857        H  0.81308041  0.15149927  0.38251789     0.09900
H858        H  0.81541355  0.18316317  0.35281668     0.11000
H859        H  0.84160466  0.09131012  0.37787982     0.11100
H860        H  0.79499490  0.11612457  0.39171914     0.13000
H861        H  0.78363096  0.10740330  0.43231357     0.09600
H862        H  0.78254364  0.08125401  0.46681031     0.11700
H863        H  0.82921818  0.03153504  0.43139434     0.08300
H864        H  0.83010993  0.05768655  0.39657782     0.11000
C865        C  0.53965429  0.26226630  0.06188176    -0.03600
C866        C  0.54040310  0.27503755  0.08332549    -0.06200
C867        C  0.52111003  0.27461590  0.09887320    -0.21300
C868        C  0.50066718  0.26119850  0.09357767     0.24500
C869        C  0.49940114  0.24939402  0.07146814    -0.18800
C870        C  0.51872052  0.25001458  0.05575644    -0.08800
C871        C  0.48181495  0.25955865  0.11211453    -0.19100
C872        C  0.46295369  0.24468463  0.11129817    -0.23900
C873        C  0.44546256  0.24287505  0.13098968     0.26500
C874        C  0.42171015  0.23725809  0.12571051    -0.20700
C875        C  0.40475936  0.23557544  0.14381505    -0.10300
C876        C  0.41129559  0.23906488  0.16772517    -0.10800
C877        C  0.43528400  0.24399530  0.17303253    -0.03800
C878        C  0.45216870  0.24591067  0.15489375    -0.18900
H879        H  0.55619790  0.28492930  0.08838652     0.10200
H880        H  0.52252996  0.28419368  0.11552995     0.10300
H881        H  0.48386752  0.23930984  0.06624252     0.09900
H882        H  0.51765341  0.24006663  0.03930078     0.11000
H883        H  0.48398102  0.27088808  0.12762070     0.11100
H884        H  0.45966294  0.23377563  0.09576502     0.13000
H885        H  0.41617427  0.23454886  0.10746415     0.09600
H886        H  0.38650370  0.23159673  0.13903431     0.11700
H887        H  0.44101398  0.24666989  0.19121294     0.08300
H888        H  0.47049688  0.24946293  0.15968556     0.11000
C889        C  0.74931511  0.24064079  0.16922022    -0.03600
C890        C  0.72585835  0.23572437  0.17626956    -0.06200
C891        C  0.70699530  0.23940795  0.16066420    -0.21300
C892        C  0.71112450  0.24784875  0.13762439     0.24500
C893        C  0.73460658  0.25241109  0.13026828    -0.18800
C894        C  0.75357848  0.24873918  0.14595427    -0.08800
C895        C  0.69028843  0.25262378  0.12236645    -0.19100
C896        C  0.69092935  0.25222321  0.09853825    -0.23900
C897        C  0.66907512  0.25553288  0.08428339     0.26500
C898        C  0.66652067  0.24306859  0.06286538    -0.20700
C899        C  0.64532364  0.24454804  0.04997421    -0.10300
C900        C  0.62638182  0.25850896  0.05838685    -0.10800
C901        C  0.62924420  0.27164897  0.07938301    -0.03800
C902        C  0.65050318  0.27039381  0.09209766    -0.18900
H903        H  0.72199028  0.22937089  0.19402742     0.10200
H904        H  0.68904178  0.23580467  0.16669243     0.10300
H905        H  0.73832382  0.25952049  0.11278318     0.09900
H906        H  0.77145085  0.25301123  0.14013864     0.11000
H907        H  0.67332080  0.25500669  0.13127151     0.11100
H908        H  0.70720307  0.24735243  0.08938582     0.13000
H909        H  0.68065278  0.23160578  0.05649867     0.09600
H910        H  0.64346540  0.23415341  0.03386190     0.11700
H911        H  0.61500426  0.28282089  0.08601424     0.08300
H912        H  0.65228397  0.28093295  0.10810946     0.11000
C913        C  0.41443818  0.31811803  0.24569468    -0.03600
C914        C  0.40994413  0.34126744  0.23701485    -0.06200
C915        C  0.42714647  0.35923117  0.23911101    -0.21300
C916        C  0.44893636  0.35456981  0.25036031     0.24500
C917        C  0.45369093  0.33123615  0.25843696    -0.18800
C918        C  0.43663259  0.31322717  0.25609788    -0.08800
C919        C  0.46663622  0.37411811  0.25291282    -0.19100
C920        C  0.48230901  0.37473841  0.27099016    -0.23900
C921        C  0.50205931  0.39217647  0.27273262     0.26500
C922        C  0.52296569  0.38478063  0.28410696    -0.20700
C923        C  0.54262603  0.39984986  0.28532072    -0.10300
C924        C  0.54173089  0.42293568  0.27555181    -0.10800
C925        C  0.52047506  0.43083371  0.26494999    -0.03800
C926        C  0.50076906  0.41550409  0.26342587    -0.18900
H927        H  0.39305765  0.34553879  0.22873286     0.10200
H928        H  0.42322883  0.37694556  0.23240846     0.10300
H929        H  0.47064660  0.32671966  0.26639016     0.09900
H930        H  0.44063288  0.29559495  0.26295403     0.11000
H931        H  0.46677493  0.38809425  0.23953084     0.11100
H932        H  0.48175398  0.36083030  0.28443493     0.13000
H933        H  0.52432546  0.36697706  0.29155571     0.09600
H934        H  0.55866137  0.39326895  0.29379118     0.11700
H935        H  0.51929099  0.44855995  0.25732041     0.08300
H936        H  0.48464525  0.42193573  0.25506105     0.11000
C937        C  0.62807690  0.42625299  0.27962226    -0.03600
C938        C  0.62833006  0.40478081  0.29251485    -0.06200
C939        C  0.64812242  0.38989286  0.29201094    -0.21300
C940        C  0.66802146  0.39587496  0.27831131     0.24500
C941        C  0.66851489  0.41815524  0.26657980    -0.18800
C942        C  0.64864190  0.43329931  0.26731486    -0.08800
C943        C  0.68711778  0.37773986  0.27613454    -0.19100
C944        C  0.70219402  0.37651212  0.25767331    -0.23900
C945        C  0.71921680  0.35652504  0.25487070     0.26500
C946        C  0.74135993  0.36100020  0.24440411    -0.20700
C947        C  0.75798889  0.34265785  0.24192747    -0.10300
C948        C  0.75257560  0.31928942  0.24937959    -0.10800
C949        C  0.73001199  0.31460699  0.25907397    -0.03800
C950        C  0.71349988  0.33305944  0.26186316    -0.18900
H951        H  0.61283713  0.39908647  0.30245712     0.10200
H952        H  0.64741059  0.37306147  0.30150576     0.10300
H953        H  0.68392203  0.42376710  0.25652708     0.09900
H954        H  0.64892811  0.44986627  0.25736449     0.11000
H955        H  0.68767036  0.36377642  0.28954627     0.11100
H956        H  0.70229123  0.39039364  0.24422017     0.13000
H957        H  0.74598334  0.37885526  0.23857254     0.09600
H958        H  0.77512425  0.34679868  0.23416185     0.11700
H959        H  0.72526956  0.29678487  0.26490098     0.08300
H960        H  0.69622276  0.32887480  0.26926727     0.11000
C961        C  0.01563198  0.44737041  0.73578959    -0.03600
C962        C  0.99375534  0.44807188  0.72372574    -0.06200
C963        C  0.97978899  0.42757075  0.72168100    -0.21300
C964        C  0.98709461  0.40593145  0.73196293     0.24500
C965        C  0.00937835  0.40498915  0.74346305    -0.18800
C966        C  0.02354047  0.42553638  0.74526744    -0.08800
C967        C  0.97054129  0.38522627  0.73046498    -0.19100
C968        C  0.97144393  0.36582684  0.74468152    -0.23900
C969        C  0.95266366  0.34702136  0.74465199     0.26500
C970        C  0.95796352  0.32415380  0.75353625    -0.20700
C971        C  0.94037979  0.30638547  0.75450610    -0.10300
C972        C  0.91703203  0.31134043  0.74697034    -0.10800
C973        C  0.91173664  0.33424883  0.73826404    -0.03800
C974        C  0.92923697  0.35186885  0.73718685    -0.18900
H975        H  0.98732697  0.46455174  0.71593238     0.10200
H976        H  0.96286826  0.42879835  0.71249266     0.10300
H977        H  0.01601881  0.38856245  0.75107026     0.09900
H978        H  0.04040996  0.42445914  0.75455013     0.11000
H979        H  0.95620510  0.38675812  0.71762495     0.11100
H980        H  0.98597712  0.36368933  0.75719238     0.13000
H981        H  0.97575626  0.32004107  0.75974591     0.09600
H982        H  0.94494000  0.28895207  0.76151303     0.11700
H983        H  0.89392714  0.33866149  0.73230621     0.08300
H984        H  0.92400860  0.36941356  0.73110219     0.11000
C985        C  0.91252438  0.66323122  0.73968164    -0.03600
C986        C  0.90510471  0.64082204  0.73109027    -0.06200
C987        C  0.92152551  0.62291954  0.72645264    -0.21300
C988        C  0.94575141  0.62669374  0.73066419     0.24500
C989        C  0.95349043  0.64909621  0.73901325    -0.18800
C990        C  0.93695274  0.66733586  0.74334070    -0.08800
C991        C  0.96197660  0.60640983  0.72659800    -0.19100
C992        C  0.98103367  0.60200320  0.74033163    -0.23900
C993        C  0.99376568  0.57887276  0.73956073     0.26500
C994        C  0.01771874  0.57789757  0.74646367    -0.20700
C995        C  0.02986142  0.55612423  0.74672151    -0.10300
C996        C  0.01810250  0.53486186  0.74038671    -0.10800
C997        C  0.99398742  0.53582991  0.73388702    -0.03800
C998        C  0.98192636  0.55754529  0.73354374    -0.18900
H999        H  0.88649808  0.63708184  0.72763661     0.10200
H1000       H  0.91518664  0.60582773  0.71997768     0.10300
H1001       H  0.97221281  0.65259632  0.74196181     0.09900
H1002       H  0.94321263  0.68448460  0.74967861     0.11000
H1003       H  0.95646995  0.59332094  0.71346464     0.11100
H1004       H  0.98683220  0.61512172  0.75330580     0.13000
H1005       H  0.02705260  0.59402885  0.75160766     0.09600
H1006       H  0.04837702  0.55594575  0.75209559     0.11700
H1007       H  0.98430542  0.51977251  0.72919087     0.08300
H1008       H  0.96316940  0.55737902  0.72917255     0.11000
C1009       C  0.86337476  0.44294708  0.56411185    -0.03600
C1010       C  0.87656136  0.44357036  0.58535067    -0.06200
C1011       C  0.87766372  0.42366029  0.60020432    -0.21300
C1012       C  0.86522106  0.40272475  0.59453032     0.24500
C1013       C  0.85291736  0.40160028  0.57266010    -0.18800
C1014       C  0.85207583  0.42156560  0.55754718    -0.08800
C1015       C  0.86493763  0.38313655  0.61246449    -0.19100
C1016       C  0.84779529  0.36635211  0.61366130    -0.23900
C1017       C  0.84597621  0.34868736  0.63333082     0.26500
C1018       C  0.83443886  0.32690698  0.62896312    -0.20700
C1019       C  0.83161721  0.31006646  0.64708167    -0.10300
C1020       C  0.83992107  0.31480258  0.67016823    -0.10800
C1021       C  0.85099004  0.33686889  0.67475265    -0.03800
C1022       C  0.85408909  0.35361571  0.65651364    -0.18900
H1023       H  0.88573763  0.45970625  0.59075654     0.10200
H1024       H  0.88755128  0.42497233  0.61669863     0.10300
H1025       H  0.84374776  0.38552681  0.56721108     0.09900
H1026       H  0.84188226  0.42056847  0.54122957     0.11000
H1027       H  0.87857580  0.38358401  0.62615394     0.11100
H1028       H  0.83420824  0.36551385  0.59998565     0.13000
H1029       H  0.82771737  0.32282945  0.61137868     0.09600
H1030       H  0.82280767  0.29334443  0.64301639     0.11700
H1031       H  0.85754874  0.34107169  0.69236902     0.08300
H1032       H  0.86236668  0.37053456  0.66077795     0.11000
C1033       C  0.83622581  0.66112120  0.66682124    -0.03600
C1034       C  0.83259131  0.66741466  0.64286074    -0.06200
C1035       C  0.83360040  0.65012264  0.62500493    -0.21300
C1036       C  0.83873206  0.62630659  0.63062589     0.24500
C1037       C  0.84226877  0.61993239  0.65457903    -0.18800
C1038       C  0.84102713  0.63715411  0.67247075    -0.08800
C1039       C  0.83984850  0.60828922  0.61133919    -0.19100
C1040       C  0.85534208  0.59003477  0.61224213    -0.23900
C1041       C  0.85645603  0.57007813  0.59491661     0.26500
C1042       C  0.86810169  0.54923870  0.60225287    -0.20700
C1043       C  0.86912126  0.52934733  0.58753276    -0.10300
C1044       C  0.85870840  0.52973475  0.56483280    -0.10800
C1045       C  0.84778731  0.55089873  0.55689900    -0.03800
C1046       C  0.84653324  0.57093534  0.57188404    -0.18900
H1047       H  0.82876367  0.68569903  0.63786982     0.10200
H1048       H  0.83066717  0.65540463  0.60671583     0.10300
H1049       H  0.84561178  0.60156655  0.65958818     0.09900
H1050       H  0.84389167  0.63167588  0.69071216     0.11000
H1051       H  0.82792158  0.61036590  0.59630852     0.11100
H1052       H  0.86746786  0.58903083  0.62727341     0.13000
H1053       H  0.87606240  0.54811017  0.61976770     0.09600
H1054       H  0.87791976  0.51346589  0.59414518     0.11700
H1055       H  0.83967273  0.55173476  0.53945175     0.08300
H1056       H  0.83785944  0.58688322  0.56536200     0.11000
C1057       C  0.62690733  0.74090257  0.93736228    -0.03600
C1058       C  0.64848401  0.73164365  0.94607071    -0.06200
C1059       C  0.66917365  0.73263007  0.93223492    -0.21300
C1060       C  0.66873936  0.74279977  0.90942075     0.24500
C1061       C  0.64738022  0.75298813  0.90114855    -0.18800
C1062       C  0.62672053  0.75189444  0.91488455    -0.08800
C1063       C  0.69074159  0.74240688  0.89469987    -0.19100
C1064       C  0.69008855  0.74215859  0.87075540    -0.23900
C1065       C  0.71129246  0.74058703  0.85497874     0.26500
C1066       C  0.70732147  0.73627786  0.83075600    -0.20700
C1067       C  0.72624353  0.73518400  0.81483482    -0.10300
C1068       C  0.74981870  0.73844887  0.82265410    -0.10800
C1069       C  0.75395792  0.74255186  0.84695084    -0.03800
C1070       C  0.73490084  0.74369765  0.86296942    -0.18900
H1071       H  0.64926740  0.72310662  0.96332247     0.10200
H1072       H  0.68544379  0.72489267  0.93914243     0.10300
H1073       H  0.64650035  0.76190183  0.88411117     0.09900
H1074       H  0.61052650  0.75962764  0.90780656     0.11000
H1075       H  0.70758347  0.74064973  0.90395000     0.11100
H1076       H  0.67287034  0.74201949  0.86197706     0.13000
H1077       H  0.68940510  0.73381408  0.82402284     0.09600
H1078       H  0.72227809  0.73187796  0.79629192     0.11700
H1079       H  0.77187545  0.74528838  0.85354097     0.08300
H1080       H  0.73884717  0.74743962  0.88137826     0.11000
C1081       C  0.62416311  0.55018627  0.74656451    -0.03600
C1082       C  0.62152233  0.57243484  0.73525453    -0.06200
C1083       C  0.64054967  0.58829154  0.73361456    -0.21300
C1084       C  0.66284376  0.58252743  0.74323863     0.24500
C1085       C  0.66583434  0.55993128  0.75400827    -0.18800
C1086       C  0.64664740  0.54388459  0.75555976    -0.08800
C1087       C  0.68177307  0.60116365  0.74201750    -0.19100
C1088       C  0.70384973  0.59920828  0.75116619    -0.23900
C1089       C  0.72128743  0.61916195  0.74990945     0.26500
C1090       C  0.74560436  0.61399477  0.74788279    -0.20700
C1091       C  0.76238614  0.63241886  0.74638126    -0.10300
C1092       C  0.75523066  0.65648771  0.74722997    -0.10800
C1093       C  0.73084829  0.66162405  0.74976982    -0.03800
C1094       C  0.71408857  0.64319586  0.75116427    -0.18900
H1095       H  0.60453957  0.57787162  0.72790305     0.10200
H1096       H  0.63763863  0.60542454  0.72512210     0.10300
H1097       H  0.68267319  0.55458148  0.76159365     0.09900
H1098       H  0.64922884  0.52689905  0.76441119     0.11000
H1099       H  0.67709034  0.61768833  0.73302148     0.11100
H1100       H  0.70979553  0.58259174  0.75904858     0.13000
H1101       H  0.75160699  0.59563223  0.74714020     0.09600
H1102       H  0.78099133  0.62775796  0.74457907     0.11700
H1103       H  0.72466980  0.67990159  0.75091257     0.08300
H1104       H  0.69555556  0.64782650  0.75360914     0.11000
C1105       C  0.83036757  0.81909087  0.66613682    -0.03600
C1106       C  0.82922202  0.81148330  0.64236339    -0.06200
C1107       C  0.82878273  0.82794776  0.62379467    -0.21300
C1108       C  0.82959656  0.85258887  0.62821592     0.24500
C1109       C  0.83086767  0.86042735  0.65198123    -0.18800
C1110       C  0.83119623  0.84380641  0.67074440    -0.08800
C1111       C  0.82937235  0.86880159  0.60716848    -0.19100
C1112       C  0.83185315  0.89278701  0.60743969    -0.23900
C1113       C  0.83309774  0.90688960  0.58495608     0.26500
C1114       C  0.82495501  0.93060745  0.58431972    -0.20700
C1115       C  0.82517898  0.94363658  0.56298713    -0.10300
C1116       C  0.83367525  0.93317440  0.54190687    -0.10800
C1117       C  0.84277452  0.90984492  0.54289002    -0.03800
C1118       C  0.84265759  0.89696402  0.56410177    -0.18900
H1119       H  0.82854200  0.79267522  0.63794833     0.10200
H1120       H  0.82788505  0.82127878  0.60575196     0.10300
H1121       H  0.83154389  0.87921803  0.65627188     0.09900
H1122       H  0.83213495  0.85031389  0.68882594     0.11000
H1123       H  0.82713882  0.86010696  0.59008052     0.11100
H1124       H  0.83263449  0.90240850  0.62411519     0.13000
H1125       H  0.81789475  0.93885910  0.60020329     0.09600
H1126       H  0.81821126  0.96166324  0.56290613     0.11700
H1127       H  0.84992800  0.90136954  0.52717181     0.08300
H1128       H  0.85023234  0.87921110  0.56405496     0.11000
C1129       C  0.64040985  0.72295709  0.54255025    -0.03600
C1130       C  0.63141027  0.73289251  0.56362894    -0.06200
C1131       C  0.64481276  0.73217204  0.58457761    -0.21300
C1132       C  0.66738763  0.72148478  0.58487298     0.24500
C1133       C  0.67555360  0.70997527  0.56421786    -0.18800
C1134       C  0.66229936  0.71092778  0.54323373    -0.08800
C1135       C  0.68223248  0.72333844  0.60667666    -0.19100
C1136       C  0.70620125  0.72326346  0.60590386    -0.23900
C1137       C  0.72211344  0.72693265  0.62672725     0.26500
C1138       C  0.74636038  0.73085522  0.62232143    -0.20700
C1139       C  0.76238071  0.73395702  0.64098354    -0.10300
C1140       C  0.75462219  0.73311169  0.66469992    -0.10800
C1141       C  0.73027931  0.72944723  0.66922706    -0.03800
C1142       C  0.71417347  0.72629701  0.65045272    -0.18900
H1143       H  0.61446664  0.74209812  0.56372576     0.10200
H1144       H  0.63792908  0.74079899  0.60034592     0.10300
H1145       H  0.69229633  0.70046328  0.56404931     0.09900
H1146       H  0.66937114  0.70254049  0.52742845     0.11000
H1147       H  0.67311423  0.72683717  0.62324946     0.11100
H1148       H  0.71489699  0.72167265  0.58878399     0.13000
H1149       H  0.75303059  0.73144663  0.60428374     0.09600
H1150       H  0.78095710  0.73679507  0.63672034     0.11700
H1151       H  0.72369935  0.72862972  0.68727581     0.08300
H1152       H  0.69574500  0.72295788  0.65476802     0.11000
C1153       C  0.75579259  0.74259776  0.33213403    -0.03600
C1154       C  0.76357223  0.74435957  0.35582066    -0.06200
C1155       C  0.74732693  0.74462363  0.37450512    -0.21300
C1156       C  0.72278764  0.74289793  0.37023933     0.24500
C1157       C  0.71475764  0.74174863  0.34651653    -0.18800
C1158       C  0.73112295  0.74156761  0.32766655    -0.08800
C1159       C  0.70673859  0.74190427  0.39128882    -0.19100
C1160       C  0.68386795  0.73456285  0.39095523    -0.23900
C1161       C  0.66966407  0.73195537  0.41312702     0.26500
C1162       C  0.64505549  0.73619864  0.41261088    -0.20700
C1163       C  0.63152308  0.73481671  0.43346653    -0.10300
C1164       C  0.64229416  0.72879292  0.45526278    -0.10800
C1165       C  0.66673575  0.72331630  0.45546276    -0.03800
C1166       C  0.68024316  0.72486374  0.43468247    -0.18900
H1167       H  0.78234949  0.74535896  0.36007575     0.10200
H1168       H  0.75408241  0.74570121  0.39251311     0.10300
H1169       H  0.69598784  0.74099061  0.34234410     0.09900
H1170       H  0.72445037  0.74041124  0.30964322     0.11000
H1171       H  0.71464075  0.74659021  0.40828752     0.11100
H1172       H  0.67511157  0.73050838  0.37426697     0.13000
H1173       H  0.63639621  0.74123016  0.39614345     0.09600
H1174       H  0.61270992  0.73889438  0.43255790     0.11700
H1175       H  0.67559878  0.71815692  0.47177594     0.08300
H1176       H  0.69896853  0.72041692  0.43555111     0.11000
C1177       C  0.83494461  0.82219321  0.32581041    -0.03600
C1178       C  0.83548376  0.84613150  0.31803192    -0.06200
C1179       C  0.83442518  0.86495927  0.33431922    -0.21300
C1180       C  0.83332806  0.86038069  0.35876231     0.24500
C1181       C  0.83283429  0.83650496  0.36663320    -0.18800
C1182       C  0.83366430  0.81764213  0.35034832    -0.08800
C1183       C  0.83220671  0.88073926  0.37569557    -0.19100
C1184       C  0.84341713  0.88001151  0.39685373    -0.23900
C1185       C  0.84235227  0.89880119  0.41563409     0.26500
C1186       C  0.85446405  0.89422435  0.43696680    -0.20700
C1187       C  0.85230864  0.90954444  0.45634295    -0.10300
C1188       C  0.83818773  0.93018011  0.45494234    -0.10800
C1189       C  0.82706567  0.93568724  0.43320382    -0.03800
C1190       C  0.82900111  0.92008349  0.41371866    -0.18900
H1191       H  0.83649867  0.85040205  0.29929638     0.10200
H1192       H  0.83471345  0.88317769  0.32782378     0.10300
H1193       H  0.83134348  0.83237325  0.38536161     0.09900
H1194       H  0.83298804  0.79949963  0.35700288     0.11000
H1195       H  0.82270006  0.89661603  0.37011072     0.11100
H1196       H  0.85390867  0.86423069  0.40095200     0.13000
H1197       H  0.86511255  0.87822298  0.43897945     0.09600
H1198       H  0.86142301  0.90492646  0.47268349     0.11700
H1199       H  0.81611018  0.95150825  0.43156267     0.08300
H1200       H  0.81953297  0.92455285  0.39759928     0.11000
C1201       C  0.62770241  0.71717855  0.06145519    -0.03600
C1202       C  0.64953143  0.72289456  0.05065272    -0.06200
C1203       C  0.67041888  0.72420083  0.06421671    -0.21300
C1204       C  0.66985475  0.72005734  0.08881022     0.24500
C1205       C  0.64827134  0.71304875  0.09933690    -0.18800
C1206       C  0.62745861  0.71170968  0.08583601    -0.08800
C1207       C  0.69195265  0.72311433  0.10307309    -0.19100
C1208       C  0.69150910  0.72996913  0.12603062    -0.23900
C1209       C  0.71293106  0.73291286  0.14138798     0.26500
C1210       C  0.71026998  0.74468750  0.16323529    -0.20700
C1211       C  0.72916723  0.74605740  0.17935533    -0.10300
C1212       C  0.75130485  0.73579362  0.17396082    -0.10800
C1213       C  0.75432148  0.72474198  0.15176211    -0.03800
C1214       C  0.73530077  0.72313471  0.13569450    -0.18900
H1215       H  0.65038772  0.72706136  0.03188516     0.10200
H1216       H  0.68691756  0.72921428  0.05561852     0.10300
H1217       H  0.64734892  0.70865647  0.11803520     0.09900
H1218       H  0.61106294  0.70677962  0.09466583     0.11000
H1219       H  0.70880132  0.72093696  0.09398673     0.11100
H1220       H  0.67446506  0.73416119  0.13407247     0.13000
H1221       H  0.69332494  0.75249448  0.16807878     0.09600
H1222       H  0.72639049  0.75502120  0.19616392     0.11700
H1223       H  0.77116320  0.71659136  0.14715348     0.08300
H1224       H  0.73809985  0.71353845  0.11929763     0.11000
C1225       C  0.62562016  0.55004956  0.25867153    -0.03600
C1226       C  0.64758281  0.53895195  0.26343792    -0.06200
C1227       C  0.66880563  0.55196762  0.26221268    -0.21300
C1228       C  0.66849095  0.57632551  0.25641061     0.24500
C1229       C  0.64665687  0.58713951  0.25054584    -0.18800
C1230       C  0.62546583  0.57417343  0.25178351    -0.08800
C1231       C  0.69112170  0.59003630  0.25652193    -0.19100
C1232       C  0.69179761  0.61344418  0.26198247    -0.23900
C1233       C  0.71354048  0.62865229  0.26193255     0.26500
C1234       C  0.71108439  0.65251818  0.26904359    -0.20700
C1235       C  0.73029784  0.66823081  0.26794081    -0.10300
C1236       C  0.75262999  0.66049932  0.25974056    -0.10800
C1237       C  0.75544754  0.63643009  0.25338422    -0.03800
C1238       C  0.73606692  0.62065368  0.25430384    -0.18900
H1239       H  0.64837758  0.52031993  0.26855654     0.10200
H1240       H  0.68544611  0.54314809  0.26641275     0.10300
H1241       H  0.64585713  0.60561424  0.24493722     0.09900
H1242       H  0.60894115  0.58314024  0.24747075     0.11000
H1243       H  0.70737416  0.58025452  0.25310398     0.11100
H1244       H  0.67530725  0.62216658  0.26702430     0.13000
H1245       H  0.69405979  0.65922108  0.27510461     0.09600
H1246       H  0.72753375  0.68659622  0.27329861     0.11700
H1247       H  0.77241978  0.62997691  0.24697474     0.08300
H1248       H  0.73887919  0.60249861  0.24853023     0.11000
C1249       C  0.01801200  0.53004515  0.22780037    -0.03600
C1250       C  0.99472471  0.52845369  0.21881869    -0.06200
C1251       C  0.97971557  0.54821323  0.21903299    -0.21300
C1252       C  0.98738093  0.57006457  0.22846056     0.24500
C1253       C  0.01103087  0.57210302  0.23661813    -0.18800
C1254       C  0.02623967  0.55223306  0.23621427    -0.08800
C1255       C  0.96967705  0.58972057  0.22968496    -0.19100
C1256       C  0.97115627  0.60868228  0.24430506    -0.23900
C1257       C  0.95130922  0.62609036  0.24658835     0.26500
C1258       C  0.95637426  0.65001468  0.25186971    -0.20700
C1259       C  0.93798406  0.66677279  0.25360262    -0.10300
C1260       C  0.91401692  0.65987527  0.25048699    -0.10800
C1261       C  0.90895669  0.63573140  0.24600875    -0.03800
C1262       C  0.92735466  0.61903238  0.24413120    -0.18900
H1263       H  0.98784622  0.51176047  0.21192960     0.10200
H1264       H  0.96170989  0.54617968  0.21239860     0.10300
H1265       H  0.01783810  0.58883451  0.24339473     0.09900
H1266       H  0.04417421  0.55408874  0.24305992     0.11000
H1267       H  0.95382716  0.58767425  0.21879764     0.11100
H1268       H  0.98702025  0.61164575  0.25491545     0.13000
H1269       H  0.97462718  0.65583732  0.25420928     0.09600
H1270       H  0.94259438  0.68518424  0.25730468     0.11700
H1271       H  0.89077349  0.62974620  0.24365640     0.08300
H1272       H  0.92270554  0.60054448  0.24098602     0.11000
C1273       C  0.02245217  0.44267375  0.22790875    -0.03600
C1274       C  0.03430340  0.42113639  0.23310531    -0.06200
C1275       C  0.02166713  0.39953947  0.23406170    -0.21300
C1276       C  0.99700650  0.39915045  0.23005259     0.24500
C1277       C  0.98546711  0.42053703  0.22376058    -0.18800
C1278       C  0.99799211  0.44197841  0.22278987    -0.08800
C1279       C  0.98344508  0.37641619  0.23217546    -0.19100
C1280       C  0.96068041  0.37643297  0.23961483    -0.23900
C1281       C  0.94434426  0.35556060  0.24011799     0.26500
C1282       C  0.92018071  0.36033544  0.24395974    -0.20700
C1283       C  0.90350852  0.34199600  0.24450271    -0.10300
C1284       C  0.91048175  0.31814338  0.24134775    -0.10800
C1285       C  0.93476179  0.31312217  0.23761801    -0.03800
C1286       C  0.95159404  0.33169092  0.23691787    -0.18900
H1287       H  0.05319476  0.42102100  0.23695832     0.10200
H1288       H  0.03102578  0.38324046  0.23855230     0.10300
H1289       H  0.96668583  0.42080563  0.21946576     0.09900
H1290       H  0.98831826  0.45809847  0.21833668     0.11000
H1291       H  0.99233581  0.35987805  0.22761232     0.11100
H1292       H  0.95300902  0.39330698  0.24521519     0.13000
H1293       H  0.91403631  0.37849923  0.24643656     0.09600
H1294       H  0.88505722  0.34664323  0.24751695     0.11700
H1295       H  0.94073190  0.29490961  0.23514675     0.08300
H1296       H  0.97007640  0.32720490  0.23408093     0.11000
C1297       C  0.83431140  0.66065224  0.33228921    -0.03600
C1298       C  0.82730988  0.63757263  0.32534794    -0.06200
C1299       C  0.82674973  0.61890687  0.34160031    -0.21300
C1300       C  0.83338036  0.62252011  0.36529209     0.24500
C1301       C  0.84002732  0.64565656  0.37265631    -0.18800
C1302       C  0.84036297  0.66464286  0.35624471    -0.08800
C1303       C  0.83272944  0.60135952  0.38117943    -0.19100
C1304       C  0.84520364  0.59889694  0.40146529    -0.23900
C1305       C  0.84568701  0.57581187  0.41460322     0.26500
C1306       C  0.84877467  0.57565977  0.43934359    -0.20700
C1307       C  0.84909572  0.55404529  0.45195648    -0.10300
C1308       C  0.84662714  0.53212640  0.43997373    -0.10800
C1309       C  0.84396351  0.53236015  0.41514187    -0.03800
C1310       C  0.84367920  0.55385142  0.40261633    -0.18900
H1311       H  0.82210783  0.63380059  0.30720002     0.10200
H1312       H  0.82137555  0.60136638  0.33546525     0.10300
H1313       H  0.84472419  0.64919829  0.39095790     0.09900
H1314       H  0.84560470  0.68227009  0.36219271     0.11000
H1315       H  0.82213091  0.58636940  0.37498829     0.11100
H1316       H  0.85535343  0.61377846  0.40854388     0.13000
H1317       H  0.85067357  0.59230723  0.44894608     0.09600
H1318       H  0.85133117  0.55452275  0.47105613     0.11700
H1319       H  0.84231293  0.51587995  0.40522163     0.08300
H1320       H  0.84231631  0.55309737  0.38345816     0.11000
C1321       C  0.83430249  0.32127219  0.32228863    -0.03600
C1322       C  0.83570914  0.34507907  0.31445002    -0.06200
C1323       C  0.83697399  0.36385986  0.33064299    -0.21300
C1324       C  0.83682458  0.35959578  0.35521075     0.24500
C1325       C  0.83528925  0.33577347  0.36324944    -0.18800
C1326       C  0.83407437  0.31683207  0.34692569    -0.08800
C1327       C  0.83853402  0.38079087  0.37119507    -0.19100
C1328       C  0.83720881  0.38048333  0.39513480    -0.23900
C1329       C  0.83892184  0.40272186  0.40967341     0.26500
C1330       C  0.84704131  0.40138211  0.43327281    -0.20700
C1331       C  0.84923814  0.42205861  0.44718293    -0.10300
C1332       C  0.84325954  0.44453880  0.43777010    -0.10800
C1333       C  0.83461557  0.44576647  0.41432913    -0.03800
C1334       C  0.83228058  0.42517484  0.40054793    -0.18900
H1335       H  0.83596769  0.34933577  0.29568471     0.10200
H1336       H  0.83811208  0.38193322  0.32383218     0.10300
H1337       H  0.83518312  0.33152530  0.38196867     0.09900
H1338       H  0.83299478  0.29872355  0.35361951     0.11000
H1339       H  0.84141290  0.39780505  0.36241652     0.11100
H1340       H  0.83556754  0.36368109  0.40455805     0.13000
H1341       H  0.85202539  0.38431648  0.44086304     0.09600
H1342       H  0.85589232  0.42046826  0.46517830     0.11700
H1343       H  0.82940680  0.46269640  0.40658905     0.08300
H1344       H  0.82492841  0.42699870  0.38287233     0.11000
C1345       C  0.53763676  0.54501270  0.74925918    -0.03600
C1346       C  0.51627774  0.53535564  0.75807830    -0.06200
C1347       C  0.49517928  0.54888217  0.75759757    -0.21300
C1348       C  0.49511281  0.57233223  0.74854793     0.24500
C1349       C  0.51617748  0.58135190  0.73855608    -0.18800
C1350       C  0.53708877  0.56797729  0.73904251    -0.08800
C1351       C  0.47308403  0.58718871  0.74971024    -0.19100
C1352       C  0.47400121  0.61124441  0.75181266    -0.23900
C1353       C  0.45312513  0.62774115  0.75262226     0.26500
C1354       C  0.45758715  0.65225774  0.75569587    -0.20700
C1355       C  0.43899924  0.66883129  0.75569633    -0.10300
C1356       C  0.41527835  0.66135751  0.75270509    -0.10800
C1357       C  0.41068949  0.63679413  0.74996653    -0.03800
C1358       C  0.42936049  0.62016894  0.74984039    -0.18900
H1359       H  0.51600288  0.51768403  0.76590715     0.10200
H1360       H  0.47906386  0.54131161  0.76499129     0.10300
H1361       H  0.51664753  0.59882943  0.73034288     0.09900
H1362       H  0.55299214  0.57588733  0.73155066     0.11000
H1363       H  0.45613919  0.57794013  0.74980081     0.11100
H1364       H  0.49136236  0.61964057  0.75336325     0.13000
H1365       H  0.47564165  0.65871931  0.75791252     0.09600
H1366       H  0.44328777  0.68755132  0.75801374     0.11700
H1367       H  0.39265114  0.63039951  0.74755562     0.08300
H1368       H  0.42495922  0.60156985  0.74728299     0.11000
C1369       C  0.41514560  0.74043314  0.82626396    -0.03600
C1370       C  0.43836253  0.73584603  0.81823741    -0.06200
C1371       C  0.45747104  0.73603078  0.83397882    -0.21300
C1372       C  0.45394967  0.74065416  0.85816189     0.24500
C1373       C  0.43073782  0.74522052  0.86637290    -0.18800
C1374       C  0.41148597  0.74503281  0.85053334    -0.08800
C1375       C  0.47526265  0.74164327  0.87366210    -0.19100
C1376       C  0.47486717  0.73983449  0.89749370    -0.23900
C1377       C  0.49701344  0.74083658  0.91190374     0.26500
C1378       C  0.49782766  0.72919559  0.93397552    -0.20700
C1379       C  0.51888886  0.72886520  0.94729339    -0.10300
C1380       C  0.53952410  0.74014365  0.93869144    -0.10800
C1381       C  0.53839953  0.75261125  0.91708590    -0.03800
C1382       C  0.51733930  0.75318930  0.90396346    -0.18900
H1383       H  0.44187613  0.73208596  0.79970695     0.10200
H1384       H  0.47515960  0.73257341  0.82717016     0.10300
H1385       H  0.42738855  0.74947407  0.88479201     0.09900
H1386       H  0.39383343  0.74882898  0.85722409     0.11000
H1387       H  0.49229950  0.74292296  0.86469459     0.11100
H1388       H  0.45825950  0.73618702  0.90661028     0.13000
H1389       H  0.48232440  0.71984109  0.94064014     0.09600
H1390       H  0.51920874  0.71918359  0.96395534     0.11700
H1391       H  0.55385670  0.76191700  0.91026082     0.08300
H1392       H  0.51712098  0.76337932  0.88763070     0.11000
C1393       C  0.25625734  0.65515741  0.75908476    -0.03600
C1394       C  0.26404462  0.63176316  0.76365153    -0.06200
C1395       C  0.24778906  0.61304251  0.76554680    -0.21300
C1396       C  0.22326417  0.61703068  0.76297479     0.24500
C1397       C  0.21528082  0.64048915  0.75863332    -0.18800
C1398       C  0.23164819  0.65935214  0.75674508    -0.08800
C1399       C  0.20729832  0.59579415  0.76389129    -0.19100
C1400       C  0.18331210  0.59624464  0.76500883    -0.23900
C1401       C  0.16874914  0.57393117  0.76469787     0.26500
C1402       C  0.14531980  0.57465592  0.75596633    -0.20700
C1403       C  0.13179969  0.55367804  0.75399421    -0.10300
C1404       C  0.14142062  0.53151345  0.76085886    -0.10800
C1405       C  0.16453694  0.53096798  0.77040927    -0.03800
C1406       C  0.17791438  0.55188454  0.77256141    -0.18900
H1407       H  0.28279352  0.62779891  0.76574883     0.10200
H1408       H  0.25450533  0.59521868  0.76890380     0.10300
H1409       H  0.19660568  0.64439406  0.75619748     0.09900
H1410       H  0.22503238  0.67715767  0.75315445     0.11000
H1411       H  0.21616476  0.57862903  0.76301444     0.11100
H1412       H  0.17393224  0.61315292  0.76503694     0.13000
H1413       H  0.13765576  0.59141055  0.75011431     0.09600
H1414       H  0.11396478  0.55479095  0.74675098     0.11700
H1415       H  0.17235630  0.51433025  0.77636599     0.08300
H1416       H  0.19539056  0.55059001  0.78052774     0.11000
C1417       C  0.33103037  0.65514283  0.67511406    -0.03600
C1418       C  0.33618864  0.63159463  0.68195549    -0.06200
C1419       C  0.33586333  0.61318134  0.66530333    -0.21300
C1420       C  0.33034540  0.61772500  0.64138760     0.24500
C1421       C  0.32515806  0.64132454  0.63443688    -0.18800
C1422       C  0.32560241  0.65982905  0.65112977    -0.08800
C1423       C  0.32969838  0.59705965  0.62482730    -0.19100
C1424       C  0.32727234  0.59848262  0.60102903    -0.23900
C1425       C  0.32713721  0.57678271  0.58587336     0.26500
C1426       C  0.33635887  0.57784116  0.56271653    -0.20700
C1427       C  0.33767545  0.55719080  0.54870517    -0.10300
C1428       C  0.32957156  0.53519287  0.55762761    -0.10800
C1429       C  0.31946436  0.53445796  0.58045467    -0.03800
C1430       C  0.31810079  0.55497395  0.59431822    -0.18900
H1431       H  0.34056016  0.62732496  0.70021558     0.10200
H1432       H  0.33990028  0.59521136  0.67121331     0.10300
H1433       H  0.32045297  0.64569197  0.61633567     0.09900
H1434       H  0.32141973  0.67777293  0.64526111     0.11000
H1435       H  0.33211487  0.57956529  0.63281982     0.11100
H1436       H  0.32674137  0.61567100  0.59218953     0.13000
H1437       H  0.34313632  0.59453671  0.55571487     0.09600
H1438       H  0.34545508  0.55835234  0.53116106     0.11700
H1439       H  0.31258024  0.51793753  0.58775495     0.08300
H1440       H  0.30990001  0.55365271  0.61164756     0.11000
C1441       C  0.30880446  0.92661094  0.54526393    -0.03600
C1442       C  0.31623991  0.93694196  0.56681116    -0.06200
C1443       C  0.31559130  0.92371273  0.58795083    -0.21300
C1444       C  0.30755968  0.89994816  0.58793210     0.24500
C1445       C  0.29826420  0.89039389  0.56673786    -0.18800
C1446       C  0.29908352  0.90349052  0.54564188    -0.08800
C1447       C  0.30978658  0.88527729  0.60992438    -0.19100
C1448       C  0.31282893  0.86137585  0.60909984    -0.23900
C1449       C  0.31628733  0.84540870  0.63002743     0.26500
C1450       C  0.32251984  0.82152979  0.62570475    -0.20700
C1451       C  0.32569983  0.80545443  0.64440796    -0.10300
C1452       C  0.32285792  0.81282655  0.66809975    -0.10800
C1453       C  0.31651761  0.83671744  0.67253056    -0.03800
C1454       C  0.31318044  0.85284073  0.65372210    -0.18900
H1455       H  0.32349651  0.95486493  0.56719138     0.10200
H1456       H  0.32233579  0.93171026  0.60413550     0.10300
H1457       H  0.29066683  0.87263984  0.56624649     0.09900
H1458       H  0.29251793  0.89527194  0.52949870     0.11000
H1459       H  0.31064214  0.89462987  0.62674719     0.11100
H1460       H  0.31382777  0.85283101  0.59183646     0.13000
H1461       H  0.32494069  0.81519989  0.60768930     0.09600
H1462       H  0.33049054  0.78720790  0.64022967     0.11700
H1463       H  0.31382891  0.84290777  0.69054067     0.08300
H1464       H  0.30792258  0.87089161  0.65794536     0.11000
C1465       C  0.51872468  0.74926554  0.54333381    -0.03600
C1466       C  0.53047457  0.75005446  0.56543109    -0.06200
C1467       C  0.51739497  0.74977886  0.58664836    -0.21300
C1468       C  0.49242838  0.74829707  0.58613613     0.24500
C1469       C  0.48078739  0.74829976  0.56399465    -0.18800
C1470       C  0.49374674  0.74864300  0.54294798    -0.08800
C1471       C  0.47870029  0.74733983  0.60871199    -0.19100
C1472       C  0.45723294  0.73657625  0.60992547    -0.23900
C1473       C  0.44111693  0.73662766  0.63084537     0.26500
C1474       C  0.41752825  0.72911261  0.62730023    -0.20700
C1475       C  0.40122336  0.72910939  0.64593438    -0.10300
C1476       C  0.40811809  0.73647801  0.66876350    -0.10800
C1477       C  0.43186183  0.74362509  0.67253335    -0.03800
C1478       C  0.44821077  0.74379312  0.65375813    -0.18900
H1479       H  0.54971596  0.75085897  0.56632429     0.10200
H1480       H  0.52678437  0.75029240  0.60346626     0.10300
H1481       H  0.46157651  0.74834438  0.56273975     0.09900
H1482       H  0.48406454  0.74823137  0.52630167     0.11000
H1483       H  0.48649500  0.75566049  0.62426575     0.11100
H1484       H  0.45051796  0.72748430  0.59426667     0.13000
H1485       H  0.41155162  0.72341455  0.60989198     0.09600
H1486       H  0.38317496  0.72327333  0.64240679     0.11700
H1487       H  0.43776037  0.74936633  0.68994214     0.08300
H1488       H  0.46626034  0.74938277  0.65741417     0.11000
C1489       C  0.54494937  0.42186130  0.77886073    -0.03600
C1490       C  0.54677561  0.39783040  0.78592516    -0.06200
C1491       C  0.52701355  0.38278832  0.78512659    -0.21300
C1492       C  0.50485936  0.39124634  0.77727415     0.24500
C1493       C  0.50267106  0.41561533  0.77129993    -0.18800
C1494       C  0.52254377  0.43074728  0.77213189    -0.08800
C1495       C  0.48521661  0.37354850  0.77479279    -0.19100
C1496       C  0.46368275  0.37801249  0.76520281    -0.23900
C1497       C  0.44576473  0.35883395  0.76140499     0.26500
C1498       C  0.42149916  0.36461188  0.76153701    -0.20700
C1499       C  0.40428949  0.34688212  0.75804578    -0.10300
C1500       C  0.41100931  0.32294447  0.75411301    -0.10800
C1501       C  0.43533793  0.31732297  0.75344208    -0.03800
C1502       C  0.45251115  0.33505216  0.75690229    -0.18900
H1503       H  0.56366592  0.39034541  0.79146836     0.10200
H1504       H  0.52926269  0.36420684  0.79004499     0.10300
H1505       H  0.48593756  0.42312958  0.76554029     0.09900
H1506       H  0.52048418  0.44921914  0.76679951     0.11000
H1507       H  0.48906013  0.35551192  0.78076463     0.11100
H1508       H  0.45866530  0.39599980  0.76018991     0.13000
H1509       H  0.41583796  0.38282915  0.76467959     0.09600
H1510       H  0.38570439  0.35195015  0.75868181     0.11700
H1511       H  0.44116996  0.29919297  0.75021400     0.08300
H1512       H  0.47106134  0.33006731  0.75567861     0.11000
C1513       C  0.53677978  0.24022145  0.93643251    -0.03600
C1514       C  0.51466016  0.24347719  0.94762472    -0.06200
C1515       C  0.49349027  0.24176776  0.93454541    -0.21300
C1516       C  0.49402788  0.23661916  0.91014450     0.24500
C1517       C  0.51621739  0.23354077  0.89902293    -0.18800
C1518       C  0.53723513  0.23514260  0.91202511    -0.08800
C1519       C  0.47145125  0.23630366  0.89634816    -0.19100
C1520       C  0.46949288  0.22518558  0.87522442    -0.23900
C1521       C  0.44901710  0.22776714  0.85876355     0.26500
C1522       C  0.45266833  0.22196029  0.83482316    -0.20700
C1523       C  0.43461477  0.22511735  0.81813650    -0.10300
C1524       C  0.41227333  0.23386999  0.82505473    -0.10800
C1525       C  0.40828152  0.23906153  0.84914551    -0.03800
C1526       C  0.42650561  0.23611851  0.86587945    -0.18900
H1527       H  0.51369255  0.24755757  0.96639430     0.10200
H1528       H  0.47666289  0.24458155  0.94346883     0.10300
H1529       H  0.51767621  0.23064947  0.88010781     0.09900
H1530       H  0.55391508  0.23271273  0.90273813     0.11000
H1531       H  0.45659504  0.24631416  0.90347567     0.11100
H1532       H  0.48428740  0.21461712  0.86876863     0.13000
H1533       H  0.46975963  0.21533292  0.82887738     0.09600
H1534       H  0.43817084  0.22057393  0.79978754     0.11700
H1535       H  0.39116248  0.24564609  0.85502518     0.08300
H1536       H  0.42274822  0.24025299  0.88423599     0.11000
C1537       C  0.33244797  0.32664839  0.67278266    -0.03600
C1538       C  0.33724047  0.35015970  0.68001702    -0.06200
C1539       C  0.33685796  0.36880843  0.66360255    -0.21300
C1540       C  0.33157725  0.36450513  0.63960267     0.24500
C1541       C  0.32692538  0.34091827  0.63227765    -0.18800
C1542       C  0.32745529  0.32220702  0.64870939    -0.08800
C1543       C  0.33072321  0.38535685  0.62331992    -0.19100
C1544       C  0.32654298  0.38431816  0.59976657    -0.23900
C1545       C  0.32596071  0.40618460  0.58493820     0.26500
C1546       C  0.33333802  0.40513887  0.56115902    -0.20700
C1547       C  0.33442953  0.42594462  0.54738299    -0.10300
C1548       C  0.32799162  0.44807672  0.55722056    -0.10800
C1549       C  0.31946830  0.44880424  0.58064983    -0.03800
C1550       C  0.31832401  0.42811876  0.59429436    -0.18900
H1551       H  0.34130681  0.35421226  0.69838983     0.10200
H1552       H  0.34055119  0.38676138  0.66977262     0.10300
H1553       H  0.32263716  0.33663675  0.61407624     0.09900
H1554       H  0.32360883  0.30428457  0.64257356     0.11000
H1555       H  0.33420044  0.40265656  0.63131406     0.11100
H1556       H  0.32466482  0.36733974  0.59076962     0.13000
H1557       H  0.33894534  0.38833661  0.55347792     0.09600
H1558       H  0.34088133  0.42478424  0.52930952     0.11700
H1559       H  0.31385391  0.46545358  0.58863603     0.08300
H1560       H  0.31146328  0.42942529  0.61219098     0.11000
C1561       C  0.25489889  0.32459314  0.75189049    -0.03600
C1562       C  0.26223906  0.34858242  0.75305333    -0.06200
C1563       C  0.24551511  0.36687941  0.75452260    -0.21300
C1564       C  0.22106942  0.36173470  0.75494772     0.24500
C1565       C  0.21366387  0.33776891  0.75314980    -0.18800
C1566       C  0.23042727  0.31943129  0.75164099    -0.08800
C1567       C  0.20432054  0.38201291  0.75775204    -0.19100
C1568       C  0.18052133  0.38002990  0.75995702    -0.23900
C1569       C  0.16527033  0.40138382  0.76269315     0.26500
C1570       C  0.14252800  0.40166986  0.75238004    -0.20700
C1571       C  0.12912936  0.42271572  0.75217136    -0.10300
C1572       C  0.13835422  0.44372445  0.76233767    -0.10800
C1573       C  0.16022540  0.44279230  0.77436958    -0.03800
C1574       C  0.17347471  0.42179005  0.77471692    -0.18900
H1575       H  0.28093940  0.35330044  0.75307491     0.10200
H1576       H  0.25176856  0.38515915  0.75568820     0.10300
H1577       H  0.19509183  0.33284169  0.75306141     0.09900
H1578       H  0.22416335  0.30117095  0.75050398     0.11000
H1579       H  0.21220039  0.39973969  0.75795129     0.11100
H1580       H  0.17171713  0.36288921  0.75847800     0.13000
H1581       H  0.13563657  0.38595679  0.74349055     0.09600
H1582       H  0.11211417  0.42281814  0.74309594     0.11700
H1583       H  0.16739413  0.45848443  0.78306134     0.08300
H1584       H  0.19038221  0.42174285  0.78396787     0.11000
C1585       C  0.33330688  0.16799275  0.66408464    -0.03600
C1586       C  0.33413125  0.17554067  0.64025790    -0.06200
C1587       C  0.33578627  0.15890836  0.62182468    -0.21300
C1588       C  0.33654921  0.13427974  0.62659168     0.24500
C1589       C  0.33590847  0.12666506  0.65042646    -0.18800
C1590       C  0.33425929  0.14332899  0.66890866    -0.08800
C1591       C  0.33866955  0.11749648  0.60613200    -0.19100
C1592       C  0.33454505  0.09371882  0.60713277    -0.23900
C1593       C  0.33602329  0.07788015  0.58585371     0.26500
C1594       C  0.32323480  0.05625431  0.58547241    -0.20700
C1595       C  0.32308981  0.04179466  0.56510389    -0.10300
C1596       C  0.33568854  0.04880036  0.54469438    -0.10800
C1597       C  0.34945728  0.06972503  0.54556665    -0.03800
C1598       C  0.34982796  0.08395894  0.56590726    -0.18900
H1599       H  0.33359813  0.19434704  0.63577166     0.10200
H1600       H  0.33643551  0.16536400  0.60368551     0.10300
H1601       H  0.33707152  0.10795990  0.65502612     0.09900
H1602       H  0.33392890  0.13683502  0.68702907     0.11000
H1603       H  0.34275511  0.12556654  0.58909607     0.11100
H1604       H  0.32846671  0.08569621  0.62357526     0.13000
H1605       H  0.31277613  0.05088397  0.60071895     0.09600
H1606       H  0.31243409  0.02566202  0.56501923     0.11700
H1607       H  0.35985858  0.07525620  0.53034084     0.08300
H1608       H  0.36093180  0.09973842  0.56578921     0.11000
C1609       C  0.33667828  0.04975527  0.45755339    -0.03600
C1610       C  0.33311842  0.03913433  0.43519216    -0.06200
C1611       C  0.33359837  0.05302915  0.41440236    -0.21300
C1612       C  0.33749037  0.07784014  0.41545688     0.24500
C1613       C  0.34214596  0.08818478  0.43777959    -0.18800
C1614       C  0.34163203  0.07437814  0.45846262    -0.08800
C1615       C  0.33714100  0.09227695  0.39303029    -0.19100
C1616       C  0.33350688  0.11615760  0.39271329    -0.23900
C1617       C  0.33380628  0.13188062  0.37117367     0.26500
C1618       C  0.33073714  0.15652118  0.37463094    -0.20700
C1619       C  0.33091714  0.17241680  0.35549906    -0.10300
C1620       C  0.33403442  0.16421857  0.33209349    -0.10800
C1621       C  0.33724801  0.13954487  0.32848079    -0.03800
C1622       C  0.33717550  0.12353411  0.34777618    -0.18900
H1623       H  0.32956307  0.02017839  0.43375687     0.10200
H1624       H  0.33046317  0.04442386  0.39746066     0.10300
H1625       H  0.34643663  0.10692088  0.43951609     0.09900
H1626       H  0.34495353  0.08318299  0.47526365     0.11000
H1627       H  0.33948875  0.08269704  0.37649868     0.11100
H1628       H  0.32989872  0.12510812  0.40938527     0.13000
H1629       H  0.32818755  0.16362713  0.39233756     0.09600
H1630       H  0.32838703  0.19122878  0.35914882     0.11700
H1631       H  0.33986850  0.13258868  0.31074191     0.08300
H1632       H  0.33970837  0.10478023  0.34411984     0.11000
C1633       C  0.52254376  0.23025511  0.54487445    -0.03600
C1634       C  0.53417297  0.23207137  0.56695464    -0.06200
C1635       C  0.52091505  0.23453071  0.58792867    -0.21300
C1636       C  0.49591959  0.23550143  0.58712919     0.24500
C1637       C  0.48441468  0.23320221  0.56509512    -0.18800
C1638       C  0.49751606  0.23070584  0.54433199    -0.08800
C1639       C  0.48200380  0.23776702  0.60942498    -0.19100
C1640       C  0.46034684  0.24817444  0.60984512    -0.23900
C1641       C  0.44409788  0.24883432  0.63067917     0.26500
C1642       C  0.42171526  0.25962637  0.62770567    -0.20700
C1643       C  0.40492695  0.25924705  0.64593839    -0.10300
C1644       C  0.41023321  0.24827786  0.66773567    -0.10800
C1645       C  0.43284645  0.23813542  0.67109728    -0.03800
C1646       C  0.44958094  0.23824952  0.65273682    -0.18900
H1647       H  0.55341506  0.23171553  0.56802022     0.10200
H1648       H  0.53017052  0.23593297  0.60476813     0.10300
H1649       H  0.46520414  0.23283693  0.56377549     0.09900
H1650       H  0.48782286  0.22913007  0.52776473     0.11000
H1651       H  0.48996925  0.23071642  0.62548958     0.11100
H1652       H  0.45374027  0.25645542  0.59367664     0.13000
H1653       H  0.41697524  0.26800968  0.61099850     0.09600
H1654       H  0.38773945  0.26748203  0.64293753     0.11700
H1655       H  0.43738536  0.22951244  0.68773260     0.08300
H1656       H  0.46648075  0.22968862  0.65598400     0.11000
C1657       C  0.51930845  0.22556203  0.45853525    -0.03600
C1658       C  0.49779863  0.21283287  0.45955177    -0.06200
C1659       C  0.48239538  0.21225743  0.44011614    -0.21300
C1660       C  0.48774231  0.22475277  0.41918792     0.24500
C1661       C  0.50956076  0.23727838  0.41791632    -0.18800
C1662       C  0.52527358  0.23753256  0.43742046    -0.08800
C1663       C  0.46979225  0.22399878  0.39957250    -0.19100
C1664       C  0.46950132  0.23868981  0.38058962    -0.23900
C1665       C  0.45036808  0.23788116  0.36221064     0.26500
C1666       C  0.45590889  0.24383769  0.33864470    -0.20700
C1667       C  0.43823533  0.24399658  0.32104787    -0.10300
C1668       C  0.41442068  0.23869631  0.32672873    -0.10800
C1669       C  0.40883928  0.23291318  0.35041264    -0.03800
C1670       C  0.42659274  0.23239459  0.36792498    -0.18900
H1671       H  0.49278961  0.20330320  0.47554169     0.10200
H1672       H  0.46591829  0.20230874  0.44165179     0.10300
H1673       H  0.51467242  0.24682402  0.40203286     0.09900
H1674       H  0.54171618  0.24757799  0.43623569     0.11000
H1675       H  0.45563373  0.21087567  0.40123596     0.11100
H1676       H  0.48369257  0.25155283  0.37802289     0.13000
H1677       H  0.47403264  0.24829299  0.33381506     0.09600
H1678       H  0.44319097  0.24864383  0.30304606     0.11700
H1679       H  0.39070897  0.22874524  0.35545057     0.08300
H1680       H  0.42152798  0.22829957  0.38601548     0.11000
C1681       C  0.41347815  0.66336224  0.25560462    -0.03600
C1682       C  0.43719290  0.67126399  0.25699743    -0.06200
C1683       C  0.45588837  0.65499377  0.25877438    -0.21300
C1684       C  0.45161026  0.63029333  0.25911895     0.24500
C1685       C  0.42790239  0.62218095  0.25760291    -0.18800
C1686       C  0.40904876  0.63857644  0.25588880    -0.08800
C1687       C  0.47268109  0.61423334  0.26109708    -0.19100
C1688       C  0.47265998  0.59028577  0.25828940    -0.23900
C1689       C  0.49518668  0.57619592  0.25874325     0.26500
C1690       C  0.49504164  0.55227939  0.26636518    -0.20700
C1691       C  0.51626432  0.53907015  0.26736574    -0.10300
C1692       C  0.53802303  0.54953714  0.26060394    -0.10800
C1693       C  0.53792304  0.57319500  0.25225036    -0.03800
C1694       C  0.51683354  0.58625736  0.25115205    -0.18900
H1695       H  0.44143811  0.69013207  0.25676469     0.10200
H1696       H  0.47390811  0.66183898  0.25981079     0.10300
H1697       H  0.42370841  0.60334613  0.25794072     0.09900
H1698       H  0.39101337  0.63181828  0.25482026     0.11000
H1699       H  0.48952204  0.62300355  0.26481193     0.11100
H1700       H  0.45610135  0.58066362  0.25576228     0.13000
H1701       H  0.47856299  0.54395026  0.27194696     0.09600
H1702       H  0.51567315  0.52082169  0.27373417     0.11700
H1703       H  0.55420470  0.58172007  0.24641063     0.08300
H1704       H  0.51759084  0.60420300  0.24405210     0.11000
C1705       C  0.41514524  0.74241581  0.17299716    -0.03600
C1706       C  0.43806005  0.74892413  0.18086349    -0.06200
C1707       C  0.45740339  0.74889186  0.16528642    -0.21300
C1708       C  0.45455342  0.74220574  0.14141593     0.24500
C1709       C  0.43146080  0.73648054  0.13328703    -0.18800
C1710       C  0.41201991  0.73667061  0.14889638    -0.08800
C1711       C  0.47638499  0.74016976  0.12639751    -0.19100
C1712       C  0.47659450  0.73370960  0.10329918    -0.23900
C1713       C  0.49891236  0.72984460  0.08957501     0.26500
C1714       C  0.49840234  0.73225516  0.06474635    -0.20700
C1715       C  0.51899854  0.72872755  0.05123602    -0.10300
C1716       C  0.54059278  0.72250770  0.06227711    -0.10800
C1717       C  0.54087604  0.71922450  0.08707152    -0.03800
C1718       C  0.52031459  0.72280694  0.10055525    -0.18900
H1719       H  0.44117888  0.75383324  0.19921189     0.10200
H1720       H  0.47483276  0.75358926  0.17212474     0.10300
H1721       H  0.42816011  0.73128625  0.11512380     0.09900
H1722       H  0.39463279  0.73169831  0.14219259     0.11000
H1723       H  0.49325728  0.74382840  0.13510599     0.11100
H1724       H  0.46003590  0.73145839  0.09369651     0.13000
H1725       H  0.48207040  0.73727391  0.05579171     0.09600
H1726       H  0.51806598  0.73130741  0.03219259     0.11700
H1727       H  0.55708708  0.71412098  0.09618759     0.08300
H1728       H  0.52125062  0.71976551  0.11951172     0.11000
C1729       C  0.51829286  0.75455692  0.45625004    -0.03600
C1730       C  0.52858333  0.74908861  0.43418092    -0.06200
C1731       C  0.51523785  0.75091424  0.41323575    -0.21300
C1732       C  0.49134260  0.75816884  0.41386466     0.24500
C1733       C  0.48138511  0.76466575  0.43588170    -0.18800
C1734       C  0.49463600  0.76267044  0.45679436    -0.08800
C1735       C  0.47730845  0.75837861  0.39136663    -0.19100
C1736       C  0.45341160  0.75643213  0.39109082    -0.23900
C1737       C  0.43831959  0.75509820  0.36940819     0.26500
C1738       C  0.41376280  0.75823540  0.37231950    -0.20700
C1739       C  0.39820949  0.75561137  0.35323584    -0.10300
C1740       C  0.40674833  0.74973948  0.33053044    -0.10800
C1741       C  0.43142352  0.74692341  0.32735887    -0.03800
C1742       C  0.44710975  0.74950275  0.34664131    -0.18900
H1743       H  0.54680085  0.74290280  0.43310493     0.10200
H1744       H  0.52344999  0.74607452  0.39653286     0.10300
H1745       H  0.46342092  0.77141844  0.43718794     0.09900
H1746       H  0.48625140  0.76744881  0.47342843     0.11000
H1747       H  0.48708049  0.75904440  0.37479073     0.11100
H1748       H  0.44397839  0.75519905  0.40782338     0.13000
H1749       H  0.40646704  0.76254904  0.38959147     0.09600
H1750       H  0.37937741  0.75817558  0.35639610     0.11700
H1751       H  0.43856153  0.74233069  0.31010609     0.08300
H1752       H  0.46586573  0.74648858  0.34367754     0.11000
C1753       C  0.31543542  0.92304478  0.45836040    -0.03600
C1754       C  0.30480807  0.90032785  0.45868632    -0.06200
C1755       C  0.30467774  0.88600701  0.43846697    -0.21300
C1756       C  0.31531527  0.89375003  0.41729019     0.24500
C1757       C  0.32589026  0.91660601  0.41673108    -0.18800
C1758       C  0.32583700  0.93114534  0.43708906    -0.08800
C1759       C  0.31578186  0.87652938  0.39712326    -0.19100
C1760       C  0.32465812  0.88064404  0.37527243    -0.23900
C1761       C  0.32589090  0.86116593  0.35731589     0.26500
C1762       C  0.32230490  0.86623325  0.33316169    -0.20700
C1763       C  0.32276051  0.84786459  0.31624150    -0.10300
C1764       C  0.32712679  0.82405609  0.32311686    -0.10800
C1765       C  0.33134420  0.81918398  0.34727535    -0.03800
C1766       C  0.33084925  0.83748942  0.36411268    -0.18900
H1767       H  0.29654975  0.89347000  0.47466800     0.10200
H1768       H  0.29645235  0.86852497  0.43953984     0.10300
H1769       H  0.33452988  0.92323075  0.40090541     0.09900
H1770       H  0.33434787  0.94849102  0.43631775     0.11000
H1771       H  0.30840142  0.85894245  0.40069546     0.11100
H1772       H  0.33056963  0.89834718  0.37013711     0.13000
H1773       H  0.31871131  0.88435392  0.32743685     0.09600
H1774       H  0.31953631  0.85230979  0.29779115     0.11700
H1775       H  0.33523631  0.80120352  0.35322555     0.08300
H1776       H  0.33460397  0.83308075  0.38246997     0.11000
C1777       C  0.14088310  0.53523025  0.25545871    -0.03600
C1778       C  0.13244240  0.55526466  0.24294494    -0.06200
C1779       C  0.14532586  0.57665082  0.24300847    -0.21300
C1780       C  0.16678357  0.57840561  0.25565758     0.24500
C1781       C  0.17440893  0.55876431  0.26935351    -0.18800
C1782       C  0.16176402  0.53731092  0.26897948    -0.08800
C1783       C  0.18124550  0.60056035  0.25381894    -0.19100
C1784       C  0.20514812  0.59989244  0.25546338    -0.23900
C1785       C  0.22143578  0.62067976  0.25323602     0.26500
C1786       C  0.24594511  0.61597468  0.25320253    -0.20700
C1787       C  0.26244485  0.63444769  0.25144234    -0.10300
C1788       C  0.25490419  0.65829687  0.24972777    -0.10800
C1789       C  0.23031372  0.66315502  0.24974568    -0.03800
C1790       C  0.21369897  0.64454606  0.25154260    -0.18900
H1791       H  0.11635597  0.55414377  0.23236870     0.10200
H1792       H  0.13893484  0.59157733  0.23253538     0.10300
H1793       H  0.19025341  0.55979991  0.28025831     0.09900
H1794       H  0.16840987  0.52229348  0.27915888     0.11000
H1795       H  0.17212757  0.61707996  0.24958148     0.11100
H1796       H  0.21368000  0.58266544  0.25782194     0.13000
H1797       H  0.25245702  0.59781599  0.25460471     0.09600
H1798       H  0.28118175  0.62994061  0.25158969     0.11700
H1799       H  0.22388133  0.68134621  0.24858815     0.08300
H1800       H  0.19501541  0.64907549  0.25181887     0.11000
C1801       C  0.25787685  0.32353926  0.24616989    -0.03600
C1802       C  0.26537017  0.34664346  0.23984342    -0.06200
C1803       C  0.24938260  0.36565522  0.23994160    -0.21300
C1804       C  0.22552463  0.36215931  0.24639777     0.24500
C1805       C  0.21785818  0.33895213  0.25236985    -0.18800
C1806       C  0.23387706  0.31983385  0.25211062    -0.08800
C1807       C  0.20991074  0.38351642  0.24764654    -0.19100
C1808       C  0.18616859  0.38301813  0.25092984    -0.23900
C1809       C  0.17179345  0.40520860  0.25250698     0.26500
C1810       C  0.14768300  0.40461131  0.24602500    -0.20700
C1811       C  0.13405302  0.42550004  0.24625030    -0.10300
C1812       C  0.14427049  0.44740437  0.25314383    -0.10800
C1813       C  0.16814469  0.44776257  0.26053059    -0.03800
C1814       C  0.18168706  0.42689973  0.26043010    -0.18900
H1815       H  0.28367530  0.35013075  0.23491734     0.10200
H1816       H  0.25581004  0.38328596  0.23522266     0.10300
H1817       H  0.19977397  0.33539701  0.25779744     0.09900
H1818       H  0.22757731  0.30225454  0.25712739     0.11000
H1819       H  0.21861589  0.40065982  0.24525171     0.11100
H1820       H  0.17669554  0.36615555  0.25137009     0.13000
H1821       H  0.13952336  0.38806266  0.24023862     0.09600
H1822       H  0.11564074  0.42452769  0.24060274     0.11700
H1823       H  0.17647333  0.46421095  0.26632098     0.08300
H1824       H  0.19987094  0.42790565  0.26668669     0.11000
C1825       C  0.33273908  0.66477259  0.33033469    -0.03600
C1826       C  0.33329530  0.67163576  0.35436654    -0.06200
C1827       C  0.33428790  0.65438849  0.37233631    -0.21300
C1828       C  0.33501312  0.63002765  0.36664488     0.24500
C1829       C  0.33390993  0.62315073  0.34265450    -0.18800
C1830       C  0.33292699  0.64030818  0.32474021    -0.08800
C1831       C  0.33666734  0.61209227  0.38596863    -0.19100
C1832       C  0.34772617  0.59103639  0.38279174    -0.23900
C1833       C  0.34973922  0.57195577  0.40099151     0.26500
C1834       C  0.36513869  0.55285317  0.39625445    -0.20700
C1835       C  0.36649373  0.53341759  0.41165621    -0.10300
C1836       C  0.35256755  0.53269496  0.43229293    -0.10800
C1837       C  0.33766784  0.55207994  0.43757032    -0.03800
C1838       C  0.33608044  0.57149611  0.42195970    -0.18900
H1839       H  0.33310610  0.69031542  0.35932014     0.10200
H1840       H  0.33488773  0.66008620  0.39071004     0.10300
H1841       H  0.33351227  0.60451069  0.33761254     0.09900
H1842       H  0.33224632  0.63431022  0.30646978     0.11000
H1843       H  0.32968739  0.61695261  0.40323161     0.11100
H1844       H  0.35638189  0.58763423  0.36590200     0.13000
H1845       H  0.37584951  0.55270973  0.38027137     0.09600
H1846       H  0.37819000  0.51872731  0.40720306     0.11700
H1847       H  0.32649156  0.55175937  0.45322075     0.08300
H1848       H  0.32361609  0.58555933  0.42610338     0.11000
C1849       C  0.34063039  0.32279299  0.32392949    -0.03600
C1850       C  0.34033511  0.34661661  0.31604948    -0.06200
C1851       C  0.34445423  0.36529788  0.33184299    -0.21300
C1852       C  0.34888299  0.36079345  0.35596224     0.24500
C1853       C  0.34918288  0.33694819  0.36398299    -0.18800
C1854       C  0.34498965  0.31816346  0.34811244    -0.08800
C1855       C  0.35311161  0.38169558  0.37165568    -0.19100
C1856       C  0.35452717  0.38091721  0.39554143    -0.23900
C1857       C  0.35696524  0.40294898  0.41002228     0.26500
C1858       C  0.34759187  0.40338890  0.43310921    -0.20700
C1859       C  0.34761882  0.42456654  0.44628961    -0.10300
C1860       C  0.35702344  0.44568108  0.43653712    -0.10800
C1861       C  0.36764166  0.44485330  0.41400113    -0.03800
C1862       C  0.36783164  0.42369929  0.40098031    -0.18900
H1863       H  0.33710900  0.35093036  0.29756509     0.10200
H1864       H  0.34418321  0.38343353  0.32510428     0.10300
H1865       H  0.35290987  0.33253206  0.38229355     0.09900
H1866       H  0.34558592  0.30000506  0.35473209     0.11000
H1867       H  0.35384269  0.39895006  0.36288592     0.11100
H1868       H  0.35201611  0.36421441  0.40494521     0.13000
H1869       H  0.33944136  0.38755074  0.44061498     0.09600
H1870       H  0.33943521  0.42461113  0.46368874     0.11700
H1871       H  0.37552154  0.46069129  0.40622041     0.08300
H1872       H  0.37632595  0.42380429  0.38375765     0.11000
C1873       C  0.25547105  0.24435139  0.32922696    -0.03600
C1874       C  0.26223886  0.24123725  0.35312167    -0.06200
C1875       C  0.24525464  0.24157134  0.37123522    -0.21300
C1876       C  0.22117519  0.24544208  0.36602138     0.24500
C1877       C  0.21423861  0.24830745  0.34213812    -0.18800
C1878       C  0.23119750  0.24769742  0.32394498    -0.08800
C1879       C  0.20361236  0.24535877  0.38573990    -0.19100
C1880       C  0.18401687  0.25916468  0.38546593    -0.23900
C1881       C  0.16470908  0.25830629  0.40358187     0.26500
C1882       C  0.14291704  0.26888511  0.39759530    -0.20700
C1883       C  0.12329927  0.26677423  0.41252539    -0.10300
C1884       C  0.12493520  0.25427982  0.43411342    -0.10800
C1885       C  0.14707721  0.24489342  0.44102386    -0.03800
C1886       C  0.16684289  0.24681162  0.42584554    -0.18900
H1887       H  0.28069740  0.23837880  0.35789156     0.10200
H1888       H  0.25098163  0.23903681  0.38944907     0.10300
H1889       H  0.19568562  0.25056630  0.33742898     0.09900
H1890       H  0.22526962  0.24990085  0.30575716     0.11000
H1891       H  0.20725331  0.23376704  0.40073651     0.11100
H1892       H  0.18134597  0.27107448  0.37044040     0.13000
H1893       H  0.14075790  0.27814185  0.38081656     0.09600
H1894       H  0.10657987  0.27456427  0.40686455     0.11700
H1895       H  0.14886399  0.23529168  0.45764331     0.08300
H1896       H  0.18348307  0.23899862  0.43153750     0.11000
C1897       C  0.03855449  0.24406239  0.43348319    -0.03600
C1898       C  0.01676907  0.23825575  0.44434387    -0.06200
C1899       C  0.99571664  0.23736349  0.43094414    -0.21300
C1900       C  0.99603188  0.24207110  0.40644322     0.24500
C1901       C  0.01776840  0.24838078  0.39573489    -0.18800
C1902       C  0.03872371  0.24915550  0.40902454    -0.08800
C1903       C  0.97346822  0.24102825  0.39254535    -0.19100
C1904       C  0.97328868  0.23617441  0.36911094    -0.23900
C1905       C  0.95197756  0.23666437  0.35343837     0.26500
C1906       C  0.95592888  0.23701825  0.32886875    -0.20700
C1907       C  0.93697093  0.23755411  0.31294694    -0.10300
C1908       C  0.91335855  0.23764899  0.32113519    -0.10800
C1909       C  0.90923251  0.23707583  0.34578092    -0.03800
C1910       C  0.92836421  0.23659860  0.36183200    -0.18900
H1911       H  0.01597600  0.23433158  0.46316236     0.10200
H1912       H  0.97917685  0.23276428  0.43968783     0.10300
H1913       H  0.01870710  0.25322216  0.37715643     0.09900
H1914       H  0.05506284  0.25404311  0.40006956     0.11000
H1915       H  0.95695334  0.24429244  0.40191450     0.11100
H1916       H  0.99002533  0.23206701  0.36045235     0.13000
H1917       H  0.97388146  0.23705738  0.32187145     0.09600
H1918       H  0.94095080  0.23794566  0.29413696     0.11700
H1919       H  0.89125243  0.23696577  0.35267545     0.08300
H1920       H  0.92449704  0.23590941  0.38061525     0.11000
C1921       C  0.12592674  0.05316736  0.26846097    -0.03600
C1922       C  0.14766712  0.04187653  0.26320299    -0.06200
C1923       C  0.16881100  0.05511503  0.26238174    -0.21300
C1924       C  0.16852044  0.07979833  0.26664258     0.24500
C1925       C  0.14700768  0.09071161  0.27325238    -0.18800
C1926       C  0.12597065  0.07760085  0.27395332    -0.08800
C1927       C  0.19069198  0.09394837  0.26400392    -0.19100
C1928       C  0.19012741  0.11699405  0.25712249    -0.23900
C1929       C  0.21119842  0.13282216  0.25511085     0.26500
C1930       C  0.20719723  0.15750327  0.25403963    -0.20700
C1931       C  0.22618162  0.17343265  0.25249899    -0.10300
C1932       C  0.24978993  0.16508037  0.25188915    -0.10800
C1933       C  0.25383307  0.14030704  0.25238487    -0.03800
C1934       C  0.23473121  0.12429669  0.25397408    -0.18900
H1935       H  0.14828043  0.02298323  0.25914971     0.10200
H1936       H  0.18526642  0.04623010  0.25771054     0.10300
H1937       H  0.14629025  0.10944213  0.27788782     0.09900
H1938       H  0.10966844  0.08674988  0.27861511     0.11000
H1939       H  0.20747863  0.08502905  0.26737008     0.11100
H1940       H  0.17305095  0.12512682  0.25309805     0.13000
H1941       H  0.18925656  0.16456627  0.25470026     0.09600
H1942       H  0.22225819  0.19236070  0.25201110     0.11700
H1943       H  0.27175579  0.13326636  0.25165046     0.08300
H1944       H  0.23856619  0.10539119  0.25408649     0.11000
C1945       C  0.03837246  0.05368596  0.26810443    -0.03600
C1946       C  0.01638378  0.04163845  0.26748939    -0.06200
C1947       C  0.99501734  0.05442518  0.26702683    -0.21300
C1948       C  0.99522420  0.07943908  0.26671550     0.24500
C1949       C  0.01714191  0.09152127  0.26822021    -0.18800
C1950       C  0.03847446  0.07878280  0.26888773    -0.08800
C1951       C  0.97246503  0.09265348  0.26457937    -0.19100
C1952       C  0.97100460  0.11282851  0.25168228    -0.23900
C1953       C  0.94952075  0.12810428  0.24968431     0.26500
C1954       C  0.95289178  0.15172564  0.24224913    -0.20700
C1955       C  0.93378973  0.16742203  0.24066937    -0.10300
C1956       C  0.91057695  0.15992761  0.24631121    -0.10800
C1957       C  0.90692334  0.13598603  0.25305801    -0.03800
C1958       C  0.92625639  0.12017383  0.25479141    -0.18900
H1959       H  0.01564783  0.02231796  0.26709689     0.10200
H1960       H  0.97831609  0.04477650  0.26619195     0.10300
H1961       H  0.01783282  0.11083686  0.26886684     0.09900
H1962       H  0.05504230  0.08865834  0.26967545     0.11000
H1963       H  0.95687697  0.08533131  0.27328484     0.11100
H1964       H  0.98689744  0.11915903  0.24266224     0.13000
H1965       H  0.97054521  0.15827088  0.23802616     0.09600
H1966       H  0.93736026  0.18561178  0.23515762     0.11700
H1967       H  0.88925570  0.12960616  0.25740035     0.08300
H1968       H  0.92285636  0.10189956  0.26001734     0.11000
C1969       C  0.91502242  0.73977716  0.32785655    -0.03600
C1970       C  0.93812250  0.73298726  0.32117166    -0.06200
C1971       C  0.95691827  0.73413412  0.33738983    -0.21300
C1972       C  0.95327182  0.74225922  0.36069154     0.24500
C1973       C  0.93004205  0.74862234  0.36761533    -0.18800
C1974       C  0.91113660  0.74730948  0.35136789    -0.08800
C1975       C  0.97445057  0.74421572  0.37655685    -0.19100
C1976       C  0.97479559  0.75473598  0.39812280    -0.23900
C1977       C  0.99725530  0.75804531  0.41179201     0.26500
C1978       C  0.99665059  0.75909933  0.43671631    -0.20700
C1979       C  0.01777834  0.76131532  0.44984142    -0.10300
C1980       C  0.03987377  0.76279456  0.43819423    -0.10800
C1981       C  0.04022805  0.76310338  0.41324076    -0.03800
C1982       C  0.01924079  0.76080228  0.40022289    -0.18900
H1983       H  0.94175600  0.72684667  0.30330837     0.10200
H1984       H  0.97453657  0.72899188  0.33151867     0.10300
H1985       H  0.92622375  0.75470356  0.38539669     0.09900
H1986       H  0.89354529  0.75263905  0.35711276     0.11000
H1987       H  0.99096107  0.73700440  0.36961961     0.11100
H1988       H  0.95850563  0.76106210  0.40619889     0.13000
H1989       H  0.97987660  0.75756801  0.44604920     0.09600
H1990       H  0.01683631  0.76131773  0.46905384     0.11700
H1991       H  0.05682794  0.76461714  0.40361514     0.08300
H1992       H  0.02037469  0.76131131  0.38105173     0.11000
C1993       C  0.12695751  0.75957133  0.43721181    -0.03600
C1994       C  0.14829731  0.75124216  0.44730336    -0.06200
C1995       C  0.16898176  0.74971536  0.43358188    -0.21300
C1996       C  0.16871462  0.75640186  0.40955482     0.24500
C1997       C  0.14750501  0.76538690  0.39967393    -0.18800
C1998       C  0.12686256  0.76674354  0.41328095    -0.08800
C1999       C  0.19079284  0.75409779  0.39528255    -0.19100
C2000       C  0.19013188  0.75061509  0.37163420    -0.23900
C2001       C  0.21121245  0.74824319  0.35593763     0.26500
C2002       C  0.20697320  0.74329304  0.33188900    -0.20700
C2003       C  0.22571871  0.74129582  0.31590461    -0.10300
C2004       C  0.24935741  0.74415943  0.32353462    -0.10800
C2005       C  0.25377191  0.74899582  0.34767442    -0.03800
C2006       C  0.23489434  0.75111136  0.36374542    -0.18900
H2007       H  0.14893919  0.74553380  0.46567564     0.10200
H2008       H  0.18514071  0.74292865  0.44164648     0.10300
H2009       H  0.14675729  0.77168404  0.38151617     0.09900
H2010       H  0.11081504  0.77353192  0.40500156     0.11000
H2011       H  0.20760275  0.75427256  0.40473879     0.11100
H2012       H  0.17291732  0.74879172  0.36304379     0.13000
H2013       H  0.18896756  0.74105760  0.32532075     0.09600
H2014       H  0.22158007  0.73756886  0.29748305     0.11700
H2015       H  0.27178533  0.75144724  0.35411926     0.08300
H2016       H  0.23908569  0.75519549  0.38202546     0.11000
C2017       C  0.03803744  0.92918944  0.25009716    -0.03600
C2018       C  0.01667078  0.93902717  0.25863218    -0.06200
C2019       C  0.99551063  0.92580430  0.25788927    -0.21300
C2020       C  0.99533337  0.90253255  0.24868910     0.24500
C2021       C  0.01659455  0.89301369  0.23952436    -0.18800
C2022       C  0.03768291  0.90610124  0.24040267    -0.08800
C2023       C  0.97278113  0.88865300  0.24830048    -0.19100
C2024       C  0.97282290  0.86464908  0.24944543    -0.23900
C2025       C  0.95156001  0.84899951  0.24778053     0.26500
C2026       C  0.95563848  0.82445924  0.24528182    -0.20700
C2027       C  0.93679458  0.80840320  0.24456048    -0.10300
C2028       C  0.91317415  0.81640437  0.24644029    -0.10800
C2029       C  0.90887458  0.84107258  0.24836850    -0.03800
C2030       C  0.92791288  0.85728986  0.24902945    -0.18900
H2031       H  0.01634089  0.95681138  0.26615952     0.10200
H2032       H  0.97932467  0.93362829  0.26480930     0.10300
H2033       H  0.01702496  0.87557206  0.23129319     0.09900
H2034       H  0.05370609  0.89812514  0.23329183     0.11000
H2035       H  0.95619616  0.89847254  0.24731089     0.11100
H2036       H  0.98974457  0.85555803  0.25162819     0.13000
H2037       H  0.97360753  0.81755676  0.24406707     0.09600
H2038       H  0.94089466  0.78959156  0.24281520     0.11700
H2039       H  0.89087307  0.84780541  0.24980533     0.08300
H2040       H  0.92393994  0.87605229  0.25103242     0.11000
C2041       C  0.12535973  0.93027007  0.24521726    -0.03600
C2042       C  0.14749278  0.94108150  0.25001731    -0.06200
C2043       C  0.16858868  0.92791367  0.24804341    -0.21300
C2044       C  0.16785577  0.90374599  0.24148814     0.24500
C2045       C  0.14588563  0.89345885  0.23530195    -0.18800
C2046       C  0.12491179  0.90651814  0.23726172    -0.08800
C2047       C  0.19003731  0.88939756  0.24136327    -0.19100
C2048       C  0.18988602  0.86601219  0.24713903    -0.23900
C2049       C  0.21087704  0.84984995  0.24655858     0.26500
C2050       C  0.20691286  0.82536841  0.25020116    -0.20700
C2051       C  0.22567848  0.80910427  0.24933091    -0.10300
C2052       C  0.24907450  0.81687791  0.24493471    -0.10800
C2053       C  0.25317020  0.84144262  0.24155912    -0.03800
C2054       C  0.23429962  0.85777515  0.24233835    -0.18900
H2055       H  0.14848800  0.95947651  0.25586804     0.10200
H2056       H  0.18539418  0.93635198  0.25241789     0.10300
H2057       H  0.14480933  0.87521662  0.22905251     0.09900
H2058       H  0.10827511  0.89780911  0.23281424     0.11000
H2059       H  0.20648536  0.89853348  0.23711283     0.11100
H2060       H  0.17312543  0.85794944  0.25247511     0.13000
H2061       H  0.18912415  0.81869757  0.25359097     0.09600
H2062       H  0.22178939  0.79038582  0.25227287     0.11700
H2063       H  0.27096785  0.84808110  0.23826192     0.08300
H2064       H  0.23833651  0.87644835  0.23971101     0.11000
C2065       C  0.12574442  0.73798886  0.56243925    -0.03600
C2066       C  0.14836085  0.74033299  0.55204597    -0.06200
C2067       C  0.16898022  0.73723642  0.56575181    -0.21300
C2068       C  0.16737986  0.73197299  0.59008160     0.24500
C2069       C  0.14475669  0.72852980  0.60017625    -0.18800
C2070       C  0.12424495  0.73161621  0.58656628    -0.08800
C2071       C  0.18946087  0.73009033  0.60455000    -0.19100
C2072       C  0.18972006  0.73517614  0.62792046    -0.23900
C2073       C  0.21082371  0.73276698  0.64359400     0.26500
C2074       C  0.20684267  0.72975431  0.66797110    -0.20700
C2075       C  0.22582701  0.72863108  0.68388658    -0.10300
C2076       C  0.24940357  0.73084931  0.67587518    -0.10800
C2077       C  0.25350876  0.73337418  0.65132023    -0.03800
C2078       C  0.23438698  0.73437375  0.63529749    -0.18900
H2079       H  0.15014975  0.74497150  0.53345930     0.10200
H2080       H  0.18621630  0.73956192  0.55747825     0.10300
H2081       H  0.14274206  0.72332523  0.61857546     0.09900
H2082       H  0.10716418  0.72914442  0.59510889     0.11000
H2083       H  0.20572473  0.72479199  0.59564694     0.11100
H2084       H  0.17340312  0.74097881  0.63642657     0.13000
H2085       H  0.18887109  0.72842784  0.67480072     0.09600
H2086       H  0.22191617  0.72648279  0.70259344     0.11700
H2087       H  0.27143670  0.73524604  0.64453603     0.08300
H2088       H  0.23812219  0.73718266  0.61666153     0.11000
C2089       C  0.03889407  0.74609373  0.56115041    -0.03600
C2090       C  0.01708964  0.74833431  0.54902503    -0.06200
C2091       C  0.99559117  0.74794732  0.56153256    -0.21300
C2092       C  0.99552503  0.74574013  0.58635208     0.24500
C2093       C  0.01727950  0.74282299  0.59837945    -0.18800
C2094       C  0.03868808  0.74309901  0.58593780    -0.08800
C2095       C  0.97261682  0.74612645  0.59936498    -0.19100
C2096       C  0.97097464  0.75510206  0.62148691    -0.23900
C2097       C  0.94921365  0.75464854  0.63644634     0.26500
C2098       C  0.95027703  0.76587327  0.65870787    -0.20700
C2099       C  0.93152449  0.76379349  0.67475225    -0.10300
C2100       C  0.91112522  0.75059789  0.66881151    -0.10800
C2101       C  0.90936615  0.74042978  0.64609391    -0.03800
C2102       C  0.92830671  0.74223958  0.63008892    -0.18900
H2103       H  0.01660984  0.75040164  0.52990258     0.10200
H2104       H  0.97900447  0.74982458  0.55186825     0.10300
H2105       H  0.01783388  0.74009174  0.61740781     0.09900
H2106       H  0.05510032  0.74101691  0.59584205     0.11000
H2107       H  0.95698201  0.73963044  0.59011327     0.11100
H2108       H  0.98670903  0.76317189  0.62936659     0.13000
H2109       H  0.96600542  0.77574116  0.66402962     0.09600
H2110       H  0.93313366  0.77224774  0.69198308     0.11700
H2111       H  0.89374984  0.73024875  0.64105778     0.08300
H2112       H  0.92660562  0.73323058  0.61322614     0.11000
C2113       C  0.12704553  0.92394398  0.77602875    -0.03600
C2114       C  0.12594512  0.90281901  0.78952591    -0.06200
C2115       C  0.14575239  0.88790984  0.79147904    -0.21300
C2116       C  0.16689495  0.89347595  0.77951439     0.24500
C2117       C  0.16849440  0.91534551  0.76719055    -0.18800
C2118       C  0.14871624  0.93047094  0.76551374    -0.08800
C2119       C  0.18623276  0.87541648  0.77923811    -0.19100
C2120       C  0.20151086  0.87317068  0.76098732    -0.23900
C2121       C  0.21883723  0.85331729  0.75900940     0.26500
C2122       C  0.23998547  0.85717174  0.74641412    -0.20700
C2123       C  0.25656338  0.83880293  0.74379126    -0.10300
C2124       C  0.25209912  0.81598743  0.75331920    -0.10800
C2125       C  0.23056324  0.81188623  0.76525993    -0.03800
C2126       C  0.21411858  0.83039823  0.76819172    -0.18900
H2127       H  0.10951849  0.89749014  0.79808108     0.10200
H2128       H  0.14416499  0.87138410  0.80139390     0.10300
H2129       H  0.18481009  0.92065504  0.75848724     0.09900
H2130       H  0.15006160  0.94669189  0.75510471     0.11000
H2131       H  0.18664216  0.86243401  0.79358249     0.11100
H2132       H  0.20121964  0.88606330  0.74658721     0.13000
H2133       H  0.24383046  0.87455672  0.73885337     0.09600
H2134       H  0.27293020  0.84248509  0.73432121     0.11700
H2135       H  0.22665747  0.79451250  0.77278894     0.08300
H2136       H  0.19760669  0.82659117  0.77730249     0.11000
C2137       C  0.04140814  0.92232952  0.76259888    -0.03600
C2138       C  0.04303989  0.89731368  0.76449494    -0.06200
C2139       C  0.02327149  0.88288119  0.76061905    -0.21300
C2140       C  0.00112160  0.89289117  0.75519710     0.24500
C2141       C  0.99900121  0.91791764  0.75389250    -0.18800
C2142       C  0.01908266  0.93254204  0.75745011    -0.08800
C2143       C  0.98125196  0.87612514  0.75050479    -0.19100
C2144       C  0.95830309  0.88031838  0.75583708    -0.23900
C2145       C  0.94019117  0.86090242  0.75476680     0.26500
C2146       C  0.91628188  0.86634658  0.75000766    -0.20700
C2147       C  0.89920944  0.84810280  0.74853947    -0.10300
C2148       C  0.90574555  0.82403385  0.75193703    -0.10800
C2149       C  0.92950661  0.81880031  0.75767906    -0.03800
C2150       C  0.94644688  0.83696015  0.75922674    -0.18900
H2151       H  0.05978347  0.88863951  0.76853161     0.10200
H2152       H  0.02532473  0.86367198  0.76187565     0.10300
H2153       H  0.98212679  0.92612629  0.74949304     0.09900
H2154       H  0.01721087  0.95172195  0.75586740     0.11000
H2155       H  0.98626011  0.85857428  0.74403428     0.11100
H2156       H  0.95278780  0.89791576  0.76173296     0.13000
H2157       H  0.91089520  0.88467844  0.74701585     0.09600
H2158       H  0.88097865  0.85283614  0.74442109     0.11700
H2159       H  0.93508240  0.80060663  0.76110126     0.08300
H2160       H  0.96440945  0.83212799  0.76423515     0.11000
C2161       C  0.12230974  0.23556645  0.56191665    -0.03600
C2162       C  0.12134637  0.22257751  0.58325456    -0.06200
C2163       C  0.14060813  0.22231621  0.59884783    -0.21300
C2164       C  0.16137444  0.23525540  0.59383215     0.24500
C2165       C  0.16277777  0.24772652  0.57203809    -0.18800
C2166       C  0.14339679  0.24777374  0.55617920    -0.08800
C2167       C  0.18033173  0.23550497  0.61243920    -0.19100
C2168       C  0.20048926  0.24851718  0.61166923    -0.23900
C2169       C  0.21809892  0.24848310  0.63147149     0.26500
C2170       C  0.24222103  0.25205340  0.62628064    -0.20700
C2171       C  0.25931057  0.25167960  0.64436065    -0.10300
C2172       C  0.25262942  0.24808195  0.66820883    -0.10800
C2173       C  0.22835191  0.24523335  0.67350360    -0.03800
C2174       C  0.21127088  0.24543548  0.65535824    -0.18900
H2175       H  0.10549776  0.21268534  0.58809278     0.10200
H2176       H  0.13899454  0.21233272  0.61526755     0.10300
H2177       H  0.17848989  0.25771465  0.56718735     0.09900
H2178       H  0.14463388  0.25791381  0.53983320     0.11000
H2179       H  0.17724869  0.22437791  0.62794936     0.11100
H2180       H  0.20483028  0.25889338  0.59601177     0.13000
H2181       H  0.24791863  0.25473627  0.60809906     0.09600
H2182       H  0.27780588  0.25417112  0.63957197     0.11700
H2183       H  0.22252558  0.24266237  0.69165242     0.08300
H2184       H  0.19273047  0.24348212  0.66014937     0.11000
C2185       C  0.03574271  0.23065867  0.55661687    -0.03600
C2186       C  0.01442738  0.23963678  0.54703248    -0.06200
C2187       C  0.99322475  0.23831256  0.56007261    -0.21300
C2188       C  0.99301823  0.22806228  0.58285824     0.24500
C2189       C  0.01406736  0.21780089  0.59173759    -0.18800
C2190       C  0.03518377  0.21926300  0.57885566    -0.08800
C2191       C  0.97093325  0.22880151  0.59735492    -0.19100
C2192       C  0.97180919  0.23112681  0.62118290    -0.23900
C2193       C  0.95087982  0.23282436  0.63729639     0.26500
C2194       C  0.95532707  0.23739260  0.66139631    -0.20700
C2195       C  0.93675874  0.23842659  0.67774270    -0.10300
C2196       C  0.91305261  0.23485020  0.67052284    -0.10800
C2197       C  0.90839932  0.23081634  0.64626999    -0.03800
C2198       C  0.92711933  0.22967050  0.62981392    -0.18900
H2199       H  0.01431098  0.24842278  0.52988454     0.10200
H2200       H  0.97715644  0.24606828  0.55273060     0.10300
H2201       H  0.01434979  0.20881168  0.60876681     0.09900
H2202       H  0.05119575  0.21166087  0.58647855     0.11000
H2203       H  0.95403855  0.22902903  0.58804676     0.11100
H2204       H  0.98916706  0.23264718  0.62958719     0.13000
H2205       H  0.97336827  0.23999046  0.66773896     0.09600
H2206       H  0.94110073  0.24184842  0.69617794     0.11700
H2207       H  0.89035422  0.22801299  0.64007425     0.08300
H2208       H  0.92279547  0.22595707  0.61148194     0.11000
C2209       C  0.25055544  0.16506902  0.74034557    -0.03600
C2210       C  0.22658290  0.17225056  0.73978563    -0.06200
C2211       C  0.20833930  0.15549851  0.73713623    -0.21300
C2212       C  0.21335717  0.13101835  0.73522167     0.24500
C2213       C  0.23732773  0.12368139  0.73542813    -0.18800
C2214       C  0.25570941  0.14054519  0.73797185    -0.08800
C2215       C  0.19284487  0.11421207  0.73290549    -0.19100
C2216       C  0.19344077  0.09062316  0.73809411    -0.23900
C2217       C  0.17167508  0.07509104  0.73830408     0.26500
C2218       C  0.17222511  0.05310681  0.75049466    -0.20700
C2219       C  0.15158029  0.03907740  0.75278545    -0.10300
C2220       C  0.12987734  0.04687402  0.74306808    -0.10800
C2221       C  0.12964462  0.06818670  0.72983664    -0.03800
C2222       C  0.15022786  0.08194099  0.72723557    -0.18900
H2223       H  0.22179608  0.19090915  0.74136374     0.10200
H2224       H  0.19009414  0.16174492  0.73685728     0.10300
H2225       H  0.24200570  0.10506847  0.73337786     0.09900
H2226       H  0.27395951  0.13435120  0.73802423     0.11000
H2227       H  0.17596690  0.12243975  0.72851405     0.11100
H2228       H  0.20998634  0.08273716  0.74421415     0.13000
H2229       H  0.18851646  0.04709586  0.75889425     0.09600
H2230       H  0.15240227  0.02264924  0.76292270     0.11700
H2231       H  0.11336865  0.07444205  0.72158035     0.08300
H2232       H  0.14897062  0.09796325  0.71661243     0.11000
C2233       C  0.04306506  0.05039495  0.74809491    -0.03600
C2234       C  0.04475316  0.07384012  0.73926614    -0.06200
C2235       C  0.02478022  0.08842707  0.73770734    -0.21300
C2236       C  0.00237509  0.08028073  0.74502996     0.24500
C2237       C  0.00038284  0.05676146  0.75386199    -0.18800
C2238       C  0.02058626  0.04193150  0.75530539    -0.08800
C2239       C  0.98223338  0.09749715  0.74313737    -0.19100
C2240       C  0.96042471  0.09486180  0.75273102    -0.23900
C2241       C  0.94261050  0.11461200  0.75215473     0.26500
C2242       C  0.91817636  0.10935317  0.75226659    -0.20700
C2243       C  0.90125678  0.12776467  0.75186581    -0.10300
C2244       C  0.90844113  0.15189152  0.75158412    -0.10800
C2245       C  0.93292365  0.15706778  0.75195352    -0.03800
C2246       C  0.94974371  0.13873516  0.75236299    -0.18900
H2247       H  0.06163087  0.08112604  0.73346737     0.10200
H2248       H  0.02697722  0.10640317  0.73088805     0.10300
H2249       H  0.98342560  0.04968394  0.75956769     0.09900
H2250       H  0.01865164  0.02398645  0.76223260     0.11000
H2251       H  0.98603938  0.11396252  0.73366258     0.11100
H2252       H  0.95540830  0.07823866  0.76126296     0.13000
H2253       H  0.91217132  0.09096285  0.75243708     0.09600
H2254       H  0.88255695  0.12306545  0.75176031     0.11700
H2255       H  0.93920274  0.17536015  0.75208614     0.08300
H2256       H  0.96835284  0.14362368  0.75332775     0.11000
C2257       C  0.52266772  0.03528548  0.22544756    -0.03600
C2258       C  0.53329580  0.05615742  0.23449302    -0.06200
C2259       C  0.52016656  0.07741623  0.23610861    -0.21300
C2260       C  0.49622552  0.07811468  0.22884512     0.24500
C2261       C  0.48617292  0.05758513  0.21852378    -0.18800
C2262       C  0.49911831  0.03645428  0.21708719    -0.08800
C2263       C  0.48190355  0.10018543  0.23237992    -0.19100
C2264       C  0.45814669  0.09921822  0.23578644    -0.23900
C2265       C  0.44206255  0.12001335  0.23920592     0.26500
C2266       C  0.41757149  0.11537148  0.24099442    -0.20700
C2267       C  0.40131041  0.13390486  0.24384793    -0.10300
C2268       C  0.40910223  0.15771998  0.24507080    -0.10800
C2269       C  0.43365305  0.16247743  0.24351579    -0.03800
C2270       C  0.45000072  0.14383746  0.24061996    -0.18900
H2271       H  0.55146425  0.05589509  0.24094507     0.10200
H2272       H  0.52847585  0.09311452  0.24372224     0.10300
H2273       H  0.46822747  0.05766648  0.21152813     0.09900
H2274       H  0.49048283  0.02090168  0.20954953     0.11000
H2275       H  0.49130904  0.11707200  0.23305321     0.11100
H2276       H  0.44963641  0.08182121  0.23639733     0.13000
H2277       H  0.41088229  0.09724045  0.23999149     0.09600
H2278       H  0.38257044  0.12948502  0.24489849     0.11700
H2279       H  0.44027134  0.18062898  0.24438252     0.08300
H2280       H  0.46865980  0.14832662  0.23947948     0.11000
C2281       C  0.40922364  0.82093738  0.24158282    -0.03600
C2282       C  0.43307286  0.81500185  0.24645215    -0.06200
C2283       C  0.45103861  0.83205724  0.24438557    -0.21300
C2284       C  0.44575333  0.85532936  0.23701305     0.24500
C2285       C  0.42195121  0.86136352  0.23185733    -0.18800
C2286       C  0.40384587  0.84430646  0.23416430    -0.08800
C2287       C  0.46535803  0.87306141  0.23615551    -0.19100
C2288       C  0.46561593  0.89144522  0.22080684    -0.23900
C2289       C  0.48425904  0.91029955  0.22061714     0.26500
C2290       C  0.47838857  0.93234723  0.21047507    -0.20700
C2291       C  0.49454538  0.95121071  0.21081140    -0.10300
C2292       C  0.51720643  0.94853970  0.22115998    -0.10800
C2293       C  0.52363760  0.92613744  0.23042438    -0.03800
C2294       C  0.50728350  0.90714484  0.23020901    -0.18900
H2295       H  0.43791567  0.79718352  0.25217886     0.10200
H2296       H  0.46919458  0.82703508  0.24854056     0.10300
H2297       H  0.41717117  0.87934599  0.22666162     0.09900
H2298       H  0.38568542  0.84942059  0.23016627     0.11000
H2299       H  0.47998402  0.87060065  0.24851506     0.11100
H2300       H  0.45091706  0.89345148  0.20840161     0.13000
H2301       H  0.46093029  0.93522777  0.20277557     0.09600
H2302       H  0.48902579  0.96813037  0.20327241     0.11700
H2303       H  0.54097351  0.92350031  0.23844456     0.08300
H2304       H  0.51277427  0.89017177  0.23756260     0.11000
C2305       C  0.32845997  0.15905735  0.17198430    -0.03600
C2306       C  0.31947091  0.13645527  0.17786269    -0.06200
C2307       C  0.31899294  0.11825341  0.16100528    -0.21300
C2308       C  0.32772554  0.12204129  0.13795701     0.24500
C2309       C  0.33613671  0.14492426  0.13178852    -0.18800
C2310       C  0.33638455  0.16326001  0.14864594    -0.08800
C2311       C  0.32865497  0.10112042  0.12178322    -0.19100
C2312       C  0.33899448  0.10076935  0.10023263    -0.23900
C2313       C  0.34175367  0.07813729  0.08688924     0.26500
C2314       C  0.34039427  0.07819988  0.06202079    -0.20700
C2315       C  0.34286240  0.05690436  0.04926025    -0.10300
C2316       C  0.34708701  0.03521603  0.06118128    -0.10800
C2317       C  0.34899364  0.03535050  0.08608788    -0.03800
C2318       C  0.34644179  0.05654750  0.09877402    -0.18900
H2319       H  0.31288578  0.13276210  0.19555813     0.10200
H2320       H  0.31224796  0.10089316  0.16622419     0.10300
H2321       H  0.34280731  0.14883741  0.11423187     0.09900
H2322       H  0.34330374  0.18058370  0.14353526     0.11000
H2323       H  0.32110222  0.08458531  0.12853830     0.11100
H2324       H  0.34560045  0.11698205  0.09204428     0.13000
H2325       H  0.33706184  0.09468561  0.05249716     0.09600
H2326       H  0.34134349  0.05743376  0.03009183     0.11700
H2327       H  0.35247263  0.01906155  0.09588444     0.08300
H2328       H  0.34847634  0.05602776  0.11789530     0.11000
C2329       C  0.33357395  0.81592785  0.16441331    -0.03600
C2330       C  0.33367557  0.80865799  0.14046769    -0.06200
C2331       C  0.33509128  0.82553105  0.12214964    -0.21300
C2332       C  0.33674083  0.84995921  0.12735995     0.24500
C2333       C  0.33582218  0.85726771  0.15126305    -0.18800
C2334       C  0.33439279  0.84047149  0.16953549    -0.08800
C2335       C  0.33908041  0.86757564  0.10769780    -0.19100
C2336       C  0.35094657  0.88826521  0.11072591    -0.23900
C2337       C  0.35278068  0.90794811  0.09305327     0.26500
C2338       C  0.36230953  0.92966264  0.10103099    -0.20700
C2339       C  0.36325499  0.94949091  0.08614303    -0.10300
C2340       C  0.35475532  0.94819914  0.06271362    -0.10800
C2341       C  0.34628091  0.92618430  0.05414507    -0.03800
C2342       C  0.34513843  0.90620357  0.06923065    -0.18900
H2343       H  0.33279639  0.78991291  0.13583371     0.10200
H2344       H  0.33536378  0.81946572  0.10388857     0.10300
H2345       H  0.33597063  0.87599740  0.15597102     0.09900
H2346       H  0.33401953  0.84679164  0.18770394     0.11000
H2347       H  0.33122246  0.86312037  0.09067003     0.11100
H2348       H  0.35956822  0.89142473  0.12771620     0.13000
H2349       H  0.36851496  0.93154680  0.11917171     0.09600
H2350       H  0.37017923  0.96608138  0.09324053     0.11700
H2351       H  0.33966794  0.92466173  0.03612689     0.08300
H2352       H  0.33802523  0.88972430  0.06219458     0.11000
C2353       C  0.64401129  0.03230960  0.76886200    -0.03600
C2354       C  0.66483010  0.03170081  0.78267457    -0.06200
C2355       C  0.67905062  0.05195440  0.78503111    -0.21300
C2356       C  0.67310182  0.07325698  0.77335187     0.24500
C2357       C  0.65170473  0.07426340  0.76024298    -0.18800
C2358       C  0.63721036  0.05394074  0.75813909    -0.08800
C2359       C  0.69020533  0.09347612  0.77507154    -0.19100
C2360       C  0.69170237  0.11138571  0.75915007    -0.23900
C2361       C  0.71135017  0.12926466  0.75926818     0.26500
C2362       C  0.70784214  0.15134461  0.74796843    -0.20700
C2363       C  0.72651505  0.16779672  0.74599600    -0.10300
C2364       C  0.74927716  0.16228537  0.75487372    -0.10800
C2365       C  0.75272078  0.14036863  0.76651590    -0.03800
C2366       C  0.73400391  0.12404770  0.76873378    -0.18900
H2367       H  0.67035643  0.01539600  0.79146230     0.10200
H2368       H  0.69523261  0.05072287  0.79546168     0.10300
H2369       H  0.64611438  0.09055074  0.75154669     0.09900
H2370       H  0.62113784  0.05493992  0.74752800     0.11000
H2371       H  0.70313885  0.09260194  0.78938313     0.11100
H2372       H  0.67866802  0.11273496  0.74497591     0.13000
H2373       H  0.69064276  0.15578138  0.74043867     0.09600
H2374       H  0.72327087  0.18461897  0.73704379     0.11700
H2375       H  0.76995927  0.13577901  0.77385771     0.08300
H2376       H  0.73771589  0.10705278  0.77708048     0.11000
C2377       C  0.64408761  0.94527165  0.76421129    -0.03600
C2378       C  0.66438616  0.94413018  0.77873815    -0.06200
C2379       C  0.67923609  0.92422748  0.77820330    -0.21300
C2380       C  0.67435641  0.90499331  0.76301135     0.24500
C2381       C  0.65345000  0.90563872  0.74909083    -0.18800
C2382       C  0.63835926  0.92558105  0.74984732    -0.08800
C2383       C  0.69264275  0.88588241  0.76117341    -0.19100
C2384       C  0.69006483  0.86529354  0.74912290    -0.23900
C2385       C  0.70993140  0.84798772  0.74695554     0.26500
C2386       C  0.70500080  0.82345565  0.74652428    -0.20700
C2387       C  0.72351928  0.80684090  0.74516924    -0.10300
C2388       C  0.74738460  0.81448337  0.74395125    -0.10800
C2389       C  0.75218580  0.83912053  0.74340644    -0.03800
C2390       C  0.73368680  0.85568180  0.74491463    -0.18900
H2391       H  0.66913007  0.95894309  0.79017509     0.10200
H2392       H  0.69508098  0.92422901  0.78921018     0.10300
H2393       H  0.64905376  0.89136498  0.73695045     0.09900
H2394       H  0.62287809  0.92608768  0.73836195     0.11000
H2395       H  0.70941880  0.88909589  0.77027910     0.11100
H2396       H  0.67303713  0.86042437  0.74144198     0.13000
H2397       H  0.68681773  0.81713294  0.74779335     0.09600
H2398       H  0.71911421  0.78800932  0.74547668     0.11700
H2399       H  0.77027728  0.84567324  0.74208120     0.08300
H2400       H  0.73801548  0.87451783  0.74433520     0.11000
C2401       C  0.82181341  0.02509898  0.93337983    -0.03600
C2402       C  0.81036826  0.02320812  0.91123542    -0.06200
C2403       C  0.80963246  0.04256554  0.89568254    -0.21300
C2404       C  0.82060361  0.06424011  0.90161735     0.24500
C2405       C  0.83189137  0.06635489  0.92391616    -0.18800
C2406       C  0.83242359  0.04693927  0.93966483    -0.08800
C2407       C  0.81951591  0.08391094  0.88393000    -0.19100
C2408       C  0.83383403  0.10317579  0.88407045    -0.23900
C2409       C  0.83273033  0.12169402  0.86528167     0.26500
C2410       C  0.83859456  0.14533093  0.87101964    -0.20700
C2411       C  0.83797753  0.16315789  0.85365059    -0.10300
C2412       C  0.83185729  0.15755430  0.83006822    -0.10800
C2413       C  0.82627347  0.13379155  0.82428151    -0.03800
C2414       C  0.82671832  0.11604019  0.84167677    -0.18900
H2415       H  0.80188473  0.00669364  0.90585825     0.10200
H2416       H  0.80068134  0.04045945  0.87874239     0.10300
H2417       H  0.84010993  0.08289338  0.92946775     0.09900
H2418       H  0.84141290  0.04891631  0.95658340     0.11000
H2419       H  0.80655131  0.08203658  0.86971290     0.11100
H2420       H  0.84656788  0.10583424  0.89831096     0.13000
H2421       H  0.84351422  0.15002768  0.88903577     0.09600
H2422       H  0.84260405  0.18125231  0.85865063     0.11700
H2423       H  0.82161618  0.12884444  0.80626584     0.08300
H2424       H  0.82286229  0.09785276  0.83644023     0.11000
C2425       C  0.82783410  0.81850620  0.82576160    -0.03600
C2426       C  0.82960249  0.84259489  0.81904970    -0.06200
C2427       C  0.83015700  0.86052862  0.83613945    -0.21300
C2428       C  0.82885916  0.85499322  0.86041124     0.24500
C2429       C  0.82716074  0.83086505  0.86729560    -0.18800
C2430       C  0.82668921  0.81280716  0.85010288    -0.08800
C2431       C  0.82845611  0.87527189  0.87736593    -0.19100
C2432       C  0.82528070  0.87362004  0.90102285    -0.23900
C2433       C  0.82237555  0.89546078  0.91557821     0.26500
C2434       C  0.83216919  0.89673948  0.93849459    -0.20700
C2435       C  0.83101411  0.91808439  0.95143686    -0.10300
C2436       C  0.81993408  0.93833667  0.94159264    -0.10800
C2437       C  0.80882186  0.93644156  0.91932973    -0.03800
C2438       C  0.80992376  0.91524154  0.90652824    -0.18900
H2439       H  0.83066707  0.84770296  0.80052381     0.10200
H2440       H  0.83140440  0.87892688  0.83027555     0.10300
H2441       H  0.82612297  0.82571898  0.88575985     0.09900
H2442       H  0.82537735  0.79440294  0.85590147     0.11000
H2443       H  0.83022442  0.89298705  0.86963777     0.11100
H2444       H  0.82496566  0.85648346  0.90996829     0.13000
H2445       H  0.84149923  0.88155701  0.94596153     0.09600
H2446       H  0.83965920  0.91903798  0.96862140     0.11700
H2447       H  0.79968838  0.95156775  0.91151028     0.08300
H2448       H  0.80124446  0.91446157  0.88935609     0.11000
C2449       C  0.32703087  0.31632515  0.16694920    -0.03600
C2450       C  0.32712437  0.30872370  0.14319952    -0.06200
C2451       C  0.32367566  0.32500720  0.12486428    -0.21300
C2452       C  0.31997105  0.34926460  0.12972584     0.24500
C2453       C  0.31932565  0.35690999  0.15353717    -0.18800
C2454       C  0.32287147  0.34055527  0.17196269    -0.08800
C2455       C  0.31707581  0.36552628  0.10918812    -0.19100
C2456       C  0.31484216  0.38939993  0.11052386    -0.23900
C2457       C  0.31341999  0.40420773  0.08882170     0.26500
C2458       C  0.32322380  0.42724864  0.08892356    -0.20700
C2459       C  0.32432437  0.44056734  0.06794388    -0.10300
C2460       C  0.31552813  0.43097600  0.04661792    -0.10800
C2461       C  0.30440914  0.40849656  0.04691407    -0.03800
C2462       C  0.30319368  0.39533096  0.06780867    -0.18900
H2463       H  0.32999307  0.29015762  0.13867158     0.10200
H2464       H  0.32405835  0.31857267  0.10672312     0.10300
H2465       H  0.31611094  0.37531636  0.15821937     0.09900
H2466       H  0.32222784  0.34689248  0.19011985     0.11000
H2467       H  0.31786586  0.35724783  0.09177534     0.11100
H2468       H  0.31576484  0.39856608  0.12742418     0.13000
H2469       H  0.33090525  0.43453810  0.10502474     0.09600
H2470       H  0.33288345  0.45790165  0.06825055     0.11700
H2471       H  0.29702232  0.40078924  0.03086837     0.08300
H2472       H  0.29447646  0.37809149  0.06733361     0.11000
C2473       C  0.31995392  0.42537964  0.96055463    -0.03600
C2474       C  0.30821042  0.40326225  0.96206838    -0.06200
C2475       C  0.30861346  0.38729735  0.94316518    -0.21300
C2476       C  0.32066444  0.39288938  0.92210596     0.24500
C2477       C  0.33177119  0.41544650  0.92013868    -0.18800
C2478       C  0.33133259  0.43156420  0.93921381    -0.08800
C2479       C  0.32116831  0.37423548  0.90326067    -0.19100
C2480       C  0.33308479  0.37584878  0.88259310    -0.23900
C2481       C  0.33335022  0.35625526  0.86470207     0.26500
C2482       C  0.33850067  0.36191686  0.84100543    -0.20700
C2483       C  0.33871722  0.34415476  0.82358530    -0.10300
C2484       C  0.33397737  0.32014354  0.82945562    -0.10800
C2485       C  0.32944674  0.31434143  0.85330197    -0.03800
C2486       C  0.32919677  0.33214819  0.87074542    -0.18900
H2487       H  0.29904154  0.39795346  0.97813738     0.10200
H2488       H  0.29976564  0.37021696  0.94523699     0.10300
H2489       H  0.34108153  0.42074644  0.90422366     0.09900
H2490       H  0.34052801  0.44848988  0.93751955     0.11000
H2491       H  0.31096164  0.35817760  0.90681567     0.11100
H2492       H  0.34248816  0.39212316  0.87807248     0.13000
H2493       H  0.34210544  0.38022475  0.83587728     0.09600
H2494       H  0.34259597  0.34931035  0.80545419     0.11700
H2495       H  0.32592792  0.29604830  0.85849436     0.08300
H2496       H  0.32609112  0.32678304  0.88892733     0.11000
C2497       C  0.25429944  0.23187925  0.16989703    -0.03600
C2498       C  0.26093912  0.21985091  0.14903844    -0.06200
C2499       C  0.24477887  0.21677976  0.13047881    -0.21300
C2500       C  0.22154172  0.22578337  0.13202302     0.24500
C2501       C  0.21457092  0.23733848  0.15315461    -0.18800
C2502       C  0.23080075  0.24020079  0.17197320    -0.08800
C2503       C  0.20616900  0.22373845  0.11049490    -0.19100
C2504       C  0.18320359  0.23051184  0.10883596    -0.23900
C2505       C  0.16998024  0.22933058  0.08590206     0.26500
C2506       C  0.14539858  0.22484374  0.08584407    -0.20700
C2507       C  0.13278118  0.22335543  0.06438089    -0.10300
C2508       C  0.14448232  0.22663163  0.04251246    -0.10800
C2509       C  0.16899259  0.23166161  0.04268102    -0.03800
C2510       C  0.18154494  0.23312776  0.06406860    -0.18900
H2511       H  0.27877518  0.21283097  0.14695709     0.10200
H2512       H  0.25068923  0.20768537  0.11457057     0.10300
H2513       H  0.19691419  0.24466878  0.15515313     0.09900
H2514       H  0.22517318  0.24949517  0.18785283     0.11000
H2515       H  0.21452564  0.21621162  0.09481799     0.11100
H2516       H  0.17359099  0.23640910  0.12443024     0.13000
H2517       H  0.13601026  0.22215676  0.10242151     0.09600
H2518       H  0.11387998  0.21959745  0.06494528     0.11700
H2519       H  0.17853916  0.23467974  0.02625856     0.08300
H2520       H  0.20027946  0.23758633  0.06343232     0.11000
C2521       C  0.14466549  0.22793180  0.95502162    -0.03600
C2522       C  0.13300600  0.22866869  0.93287641    -0.06200
C2523       C  0.14615490  0.22972138  0.91175716    -0.21300
C2524       C  0.17113723  0.23026065  0.91236596     0.24500
C2525       C  0.18271282  0.22939645  0.93453666    -0.18800
C2526       C  0.16965854  0.22844998  0.95552572    -0.08800
C2527       C  0.18480969  0.23077822  0.88975715    -0.19100
C2528       C  0.20680612  0.24029988  0.88850904    -0.23900
C2529       C  0.22246925  0.24009537  0.86725677     0.26500
C2530       C  0.24634532  0.24657281  0.87060937    -0.20700
C2531       C  0.26217149  0.24694299  0.85163976    -0.10300
C2532       C  0.25456896  0.24098319  0.82859994    -0.10800
C2533       C  0.23060312  0.23462499  0.82502088    -0.03800
C2534       C  0.21466741  0.23407948  0.84419913    -0.18900
H2535       H  0.11376194  0.22831562  0.93183441     0.10200
H2536       H  0.13680998  0.23017814  0.89491227     0.10300
H2537       H  0.20190756  0.22879735  0.93585513     0.09900
H2538       H  0.17929301  0.22770301  0.97218800     0.11000
H2539       H  0.17645478  0.22320002  0.87411712     0.11100
H2540       H  0.21420848  0.24864442  0.90427270     0.13000
H2541       H  0.25289617  0.25132499  0.88809762     0.09600
H2542       H  0.28044010  0.25210775  0.85508287     0.11700
H2543       H  0.22423915  0.22987254  0.80747987     0.08300
H2544       H  0.19637300  0.22922383  0.84073333     0.11000
C2545       C  0.82645663  0.65532690  0.17542049    -0.03600
C2546       C  0.82845352  0.63118125  0.18212389    -0.06200
C2547       C  0.82626748  0.61302999  0.16518913    -0.21300
C2548       C  0.82166292  0.61857877  0.14131759     0.24500
C2549       C  0.81966558  0.64272356  0.13462031    -0.18800
C2550       C  0.82196221  0.66084050  0.15146799    -0.08800
C2551       C  0.82031012  0.59904678  0.12349852    -0.19100
C2552       C  0.80708777  0.60098875  0.10360607    -0.23900
C2553       C  0.80703908  0.58370047  0.08352012     0.26500
C2554       C  0.79549234  0.59068526  0.06253562    -0.20700
C2555       C  0.79631200  0.57638865  0.04232886    -0.10300
C2556       C  0.80854489  0.55449679  0.04254440    -0.10800
C2557       C  0.81922487  0.54681951  0.06378280    -0.03800
C2558       C  0.81860149  0.56133191  0.08410927    -0.18900
H2559       H  0.83192013  0.62627368  0.20041768     0.10200
H2560       H  0.82810772  0.59459522  0.17075133     0.10300
H2561       H  0.81694549  0.64778351  0.11626355     0.09900
H2562       H  0.82033082  0.67920578  0.14562873     0.11000
H2563       H  0.83059732  0.58306572  0.12698426     0.11100
H2564       H  0.79614650  0.61681445  0.10136288     0.13000
H2565       H  0.78632765  0.60767969  0.06150375     0.09600
H2566       H  0.78770351  0.58277389  0.02630046     0.11700
H2567       H  0.82882581  0.53007157  0.06441744     0.08300
H2568       H  0.82747169  0.55501180  0.09994396     0.11000
C2569       C  0.83471965  0.66017749  0.82583714    -0.03600
C2570       C  0.84136370  0.63652322  0.82070628    -0.06200
C2571       C  0.84007354  0.61881580  0.83821394    -0.21300
C2572       C  0.83175718  0.62430437  0.86101065     0.24500
C2573       C  0.82577287  0.64806823  0.86638829    -0.18800
C2574       C  0.82730067  0.66579268  0.84901447    -0.08800
C2575       C  0.83030615  0.60517063  0.87912764    -0.19100
C2576       C  0.81382673  0.60540436  0.89639118    -0.23900
C2577       C  0.81348643  0.58828749  0.91642703     0.26500
C2578       C  0.80315990  0.59580002  0.93773776    -0.20700
C2579       C  0.80321454  0.58096092  0.95755544    -0.10300
C2580       C  0.81333577  0.55803703  0.95646438    -0.10800
C2581       C  0.82313247  0.55013334  0.93493879    -0.03800
C2582       C  0.82324633  0.56516313  0.91503305    -0.18900
H2583       H  0.84742960  0.63165694  0.80312594     0.10200
H2584       H  0.84515111  0.60069057  0.83382950     0.10300
H2585       H  0.82016552  0.65310867  0.88406711     0.09900
H2586       H  0.82222227  0.68384135  0.85367058     0.11000
H2587       H  0.84327062  0.59086045  0.87821884     0.11100
H2588       H  0.80078913  0.61971388  0.89676830     0.13000
H2589       H  0.79544227  0.61346459  0.93922841     0.09600
H2590       H  0.79534631  0.58757021  0.97381426     0.11700
H2591       H  0.83102567  0.53255084  0.93359544     0.08300
H2592       H  0.83082236  0.55856261  0.89866847     0.11000
C2593       C  0.91077844  0.73625446  0.17057842    -0.03600
C2594       C  0.93344138  0.74568926  0.17563113    -0.06200
C2595       C  0.95144862  0.74515282  0.15859559    -0.21300
C2596       C  0.94737909  0.73473014  0.13635338     0.24500
C2597       C  0.92458598  0.72570532  0.13103359    -0.18800
C2598       C  0.90642543  0.72655544  0.14797503    -0.08800
C2599       C  0.96690728  0.73455767  0.11871595    -0.19100
C2600       C  0.96930401  0.71715179  0.10245049    -0.23900
C2601       C  0.98706413  0.71777464  0.08295015     0.26500
C2602       C  0.98256313  0.70388575  0.06274490    -0.20700
C2603       C  0.99735286  0.70543864  0.04296522    -0.10300
C2604       C  0.01727883  0.72064578  0.04305190    -0.10800
C2605       C  0.02263130  0.73361214  0.06368333    -0.03800
C2606       C  0.00764692  0.73222364  0.08350182    -0.18900
H2607       H  0.93724370  0.75363060  0.19276046     0.10200
H2608       H  0.96872647  0.75260429  0.16291669     0.10300
H2609       H  0.92063040  0.71833742  0.11370281     0.09900
H2610       H  0.88910040  0.71932683  0.14350160     0.11000
H2611       H  0.97940635  0.74930499  0.11930075     0.11100
H2612       H  0.95674713  0.70237954  0.10252182     0.13000
H2613       H  0.96703358  0.69241730  0.06190591     0.09600
H2614       H  0.99288572  0.69505902  0.02734755     0.11700
H2615       H  0.03785855  0.74547799  0.06418061     0.08300
H2616       H  0.01221311  0.74264128  0.09900242     0.11000
C2617       C  0.01545181  0.72421225  0.95693858    -0.03600
C2618       C  0.99313455  0.71286573  0.95784779    -0.06200
C2619       C  0.97740283  0.71415965  0.93876423    -0.21300
C2620       C  0.98340919  0.72672143  0.91807221     0.24500
C2621       C  0.00624369  0.73719243  0.91656916    -0.18800
C2622       C  0.02214962  0.73584730  0.93584731    -0.08800
C2623       C  0.96486335  0.72838235  0.89913670    -0.19100
C2624       C  0.96672966  0.74089000  0.87875538    -0.23900
C2625       C  0.94716360  0.74173985  0.86082472     0.26500
C2626       C  0.95282227  0.74572507  0.83689538    -0.20700
C2627       C  0.93497818  0.74593070  0.81950637    -0.10300
C2628       C  0.91092067  0.74239773  0.82568035    -0.10800
C2629       C  0.90519486  0.73916865  0.84974797    -0.03800
C2630       C  0.92304840  0.73892684  0.86711514    -0.18900
H2631       H  0.98742931  0.70345340  0.97366753     0.10200
H2632       H  0.96013420  0.70569398  0.94046013     0.10300
H2633       H  0.01185696  0.74677222  0.90088863     0.09900
H2634       H  0.03924421  0.74470631  0.93458851     0.11000
H2635       H  0.94858470  0.71844430  0.90232059     0.11100
H2636       H  0.98316342  0.75004392  0.87444165     0.13000
H2637       H  0.97117144  0.74827871  0.83157261     0.09600
H2638       H  0.94010718  0.74876506  0.80118570     0.11700
H2639       H  0.88689189  0.73667531  0.85521069     0.08300
H2640       H  0.91777651  0.73679249  0.88545759     0.11000
C2641       C  0.51992261  0.03367311  0.74449044    -0.03600
C2642       C  0.53061127  0.05577670  0.74981923    -0.06200
C2643       C  0.51739679  0.07701421  0.74851971    -0.21300
C2644       C  0.49323782  0.07663015  0.74198359     0.24500
C2645       C  0.48273314  0.05451080  0.73629732    -0.18800
C2646       C  0.49581840  0.03338651  0.73773861    -0.08800
C2647       C  0.47954144  0.09946900  0.74072483    -0.19100
C2648       C  0.45567988  0.10011388  0.74329700    -0.23900
C2649       C  0.44032737  0.12182135  0.74224089     0.26500
C2650       C  0.41582399  0.11843177  0.74548469    -0.20700
C2651       C  0.40019741  0.13768696  0.74549862    -0.10300
C2652       C  0.40852182  0.16117291  0.74235118    -0.10800
C2653       C  0.43303824  0.16475076  0.73858084    -0.03800
C2654       C  0.44883151  0.14524777  0.73843953    -0.18900
H2655       H  0.54914299  0.05667972  0.75506396     0.10200
H2656       H  0.52602165  0.09377870  0.75281019     0.10300
H2657       H  0.46450640  0.05333438  0.73021396     0.09900
H2658       H  0.48699926  0.01679182  0.73321461     0.11000
H2659       H  0.48950595  0.11588220  0.73837412     0.11100
H2660       H  0.44647366  0.08351480  0.74711560     0.13000
H2661       H  0.40862492  0.10068742  0.74827702     0.09600
H2662       H  0.38149083  0.13404228  0.74838265     0.11700
H2663       H  0.44001468  0.18257638  0.73583169     0.08300
H2664       H  0.46752218  0.14873210  0.73557611     0.11000
C2665       C  0.40889834  0.81982812  0.74527421    -0.03600
C2666       C  0.40058816  0.84337420  0.74297104    -0.06200
C2667       C  0.41640823  0.86245679  0.74210248    -0.21300
C2668       C  0.44100428  0.85867471  0.74338166     0.24500
C2669       C  0.44960799  0.83515360  0.74548966    -0.18800
C2670       C  0.43364130  0.81586875  0.74645895    -0.08800
C2671       C  0.45649653  0.88010427  0.74378540    -0.19100
C2672       C  0.47969203  0.88053488  0.73785951    -0.23900
C2673       C  0.49365667  0.90312115  0.73833641     0.26500
C2674       C  0.51820539  0.90243282  0.74295857    -0.20700
C2675       C  0.53139553  0.92363998  0.74463836    -0.10300
C2676       C  0.52024464  0.94593619  0.74152699    -0.10800
C2677       C  0.49583337  0.94647439  0.73612501    -0.03800
C2678       C  0.48276623  0.92539339  0.73434407    -0.18900
H2679       H  0.38173103  0.84721672  0.74193734     0.10200
H2680       H  0.40931869  0.88038078  0.74050818     0.10300
H2681       H  0.46847159  0.83161787  0.74702502     0.09900
H2682       H  0.44064724  0.79795756  0.74839009     0.11000
H2683       H  0.44793591  0.89660365  0.74913219     0.11100
H2684       H  0.48879945  0.86414533  0.73311773     0.13000
H2685       H  0.52707487  0.88549428  0.74578929     0.09600
H2686       H  0.55021750  0.92256466  0.74866578     0.11700
H2687       H  0.48669090  0.96324573  0.73322474     0.08300
H2688       H  0.46414127  0.92671004  0.72962997     0.11000
C2689       C  0.33481911  0.15942985  0.82278446    -0.03600
C2690       C  0.33244321  0.13566930  0.81507545    -0.06200
C2691       C  0.33317317  0.11676774  0.83127386    -0.21300
C2692       C  0.33664737  0.12089998  0.85562619     0.24500
C2693       C  0.33918948  0.14462607  0.86350821    -0.18800
C2694       C  0.33823687  0.16367404  0.84724581    -0.08800
C2695       C  0.33689790  0.09978401  0.87180220    -0.19100
C2696       C  0.34676843  0.09912720  0.89370461    -0.23900
C2697       C  0.34814377  0.07659849  0.90793672     0.26500
C2698       C  0.34902321  0.07758291  0.93288345    -0.20700
C2699       C  0.34975651  0.05650950  0.94647919    -0.10300
C2700       C  0.34986429  0.03397399  0.93535511    -0.10800
C2701       C  0.35000535  0.03315294  0.91039637    -0.03800
C2702       C  0.34922759  0.05408550  0.89690805    -0.18900
H2703       H  0.32980444  0.13158074  0.79646032     0.10200
H2704       H  0.33111933  0.09871297  0.82466432     0.10300
H2705       H  0.34146280  0.14862239  0.88216296     0.09900
H2706       H  0.34012478  0.18172799  0.85386690     0.11000
H2707       H  0.32904638  0.08356806  0.86471330     0.11100
H2708       H  0.35411446  0.11526098  0.90146700     0.13000
H2709       H  0.34867249  0.09467266  0.94187626     0.09600
H2710       H  0.34990261  0.05788262  0.96566352     0.11700
H2711       H  0.35053993  0.01623609  0.90111872     0.08300
H2712       H  0.34976486  0.05245651  0.87777913     0.11000
C2713       C  0.34527166  0.94594593  0.93713747    -0.03600
C2714       C  0.34072507  0.92442773  0.94931697    -0.06200
C2715       C  0.33872683  0.90282530  0.93690828    -0.21300
C2716       C  0.34090229  0.90235233  0.91209748     0.24500
C2717       C  0.34622470  0.92370628  0.90003034    -0.18800
C2718       C  0.34831051  0.94522061  0.91237893    -0.08800
C2719       C  0.33837407  0.87942969  0.89903024    -0.19100
C2720       C  0.32883997  0.87867411  0.87704197    -0.23900
C2721       C  0.32864443  0.85751098  0.86101514     0.26500
C2722       C  0.31993684  0.86073439  0.83782659    -0.20700
C2723       C  0.32112175  0.84237684  0.82111829    -0.10300
C2724       C  0.33074788  0.82008300  0.82724725    -0.10800
C2725       C  0.33894082  0.81652192  0.85063609    -0.03800
C2726       C  0.33798726  0.83503520  0.86735342    -0.18900
H2727       H  0.33846602  0.92428233  0.96841282     0.10200
H2728       H  0.33503511  0.88653836  0.94663918     0.10300
H2729       H  0.34902997  0.92379995  0.88101237     0.09900
H2730       H  0.35231007  0.96130540  0.90245523     0.11000
H2731       H  0.34453054  0.86332115  0.90775987     0.11100
H2732       H  0.32150947  0.89508944  0.86977341     0.13000
H2733       H  0.31257298  0.87776991  0.83240014     0.09600
H2734       H  0.31437188  0.84565123  0.80337865     0.11700
H2735       H  0.34644696  0.79951489  0.85593533     0.08300
H2736       H  0.34486304  0.83159521  0.88495460     0.11000
C2737       C  0.64336390  0.03035523  0.25331375    -0.03600
C2738       C  0.66117232  0.03134527  0.27078084    -0.06200
C2739       C  0.67646028  0.05092569  0.27215141    -0.21300
C2740       C  0.67454621  0.06989710  0.25594599     0.24500
C2741       C  0.65605301  0.06932959  0.23893831    -0.18800
C2742       C  0.64047977  0.04978532  0.23780922    -0.08800
C2743       C  0.69318466  0.08882055  0.25678443    -0.19100
C2744       C  0.69337596  0.10866467  0.24325104    -0.23900
C2745       C  0.71321211  0.12621914  0.24400049     0.26500
C2746       C  0.70848587  0.15019420  0.23861537    -0.20700
C2747       C  0.72668570  0.16721626  0.23929697    -0.10300
C2748       C  0.75016423  0.16055646  0.24505933    -0.10800
C2749       C  0.75503203  0.13638789  0.24972471    -0.03800
C2750       C  0.73677172  0.11939744  0.24922156    -0.18900
H2751       H  0.66364397  0.01665328  0.28307853     0.10200
H2752       H  0.69036280  0.05086489  0.28551848     0.10300
H2753       H  0.65387184  0.08336261  0.22594932     0.09900
H2754       H  0.62697217  0.04932256  0.22405905     0.11000
H2755       H  0.70765804  0.08611514  0.26931494     0.11100
H2756       H  0.67839694  0.11284817  0.23184843     0.13000
H2757       H  0.69057990  0.15582923  0.23416260     0.09600
H2758       H  0.72233269  0.18561074  0.23521912     0.11700
H2759       H  0.77293447  0.13059327  0.25393594     0.08300
H2760       H  0.74126425  0.10091100  0.25257390     0.11000
C2761       C  0.64259759  0.94351933  0.25370305    -0.03600
C2762       C  0.66215041  0.94345117  0.26928786    -0.06200
C2763       C  0.67787548  0.92425792  0.26984038    -0.21300
C2764       C  0.67469116  0.90461817  0.25473707     0.24500
C2765       C  0.65432285  0.90396895  0.24000565    -0.18800
C2766       C  0.63834016  0.92326335  0.23961740    -0.08800
C2767       C  0.69372799  0.88610345  0.25472078    -0.19100
C2768       C  0.69478927  0.86709627  0.24015908    -0.23900
C2769       C  0.71489447  0.84994513  0.24149012     0.26500
C2770       C  0.71032894  0.82548616  0.23911586    -0.20700
C2771       C  0.72873681  0.80888966  0.24158544    -0.10300
C2772       C  0.75230220  0.81643428  0.24595594    -0.10800
C2773       C  0.75698083  0.84104161  0.24749646    -0.03800
C2774       C  0.73846219  0.85762894  0.24534830    -0.18900
H2775       H  0.66579407  0.95868733  0.28057488     0.10200
H2776       H  0.69314162  0.92519912  0.28159939     0.10300
H2777       H  0.65087717  0.88906419  0.22832977     0.09900
H2778       H  0.62340698  0.92286922  0.22742922     0.11000
H2779       H  0.70806903  0.88846518  0.26749867     0.11100
H2780       H  0.68037892  0.86315421  0.22795408     0.13000
H2781       H  0.69237224  0.81917589  0.23590647     0.09600
H2782       H  0.72445538  0.79009934  0.23993859     0.11700
H2783       H  0.77490516  0.84748945  0.25054352     0.08300
H2784       H  0.74260828  0.87647580  0.24658672     0.11000
C2785       C  0.83071369  0.15746664  0.16831843    -0.03600
C2786       C  0.82643628  0.13365564  0.17494968    -0.06200
C2787       C  0.83042171  0.11508730  0.15895187    -0.21300
C2788       C  0.83868667  0.11978452  0.13591424     0.24500
C2789       C  0.84205378  0.14368113  0.12885613    -0.18800
C2790       C  0.83798498  0.16233813  0.14489773    -0.08800
C2791       C  0.84457302  0.09910368  0.12049359    -0.19100
C2792       C  0.84612677  0.10004499  0.09663402    -0.23900
C2793       C  0.84957796  0.07818339  0.08208787     0.26500
C2794       C  0.83896736  0.07685723  0.05954451    -0.20700
C2795       C  0.83911079  0.05543228  0.04676858    -0.10300
C2796       C  0.84992849  0.03493787  0.05633784    -0.10800
C2797       C  0.86217698  0.03681324  0.07805842    -0.03800
C2798       C  0.86215017  0.05825058  0.09073994    -0.18900
H2799       H  0.82054376  0.12927505  0.19273614     0.10200
H2800       H  0.82746309  0.09687822  0.16478674     0.10300
H2801       H  0.84870477  0.14806183  0.11137584     0.09900
H2802       H  0.84152622  0.18049440  0.13925148     0.11000
H2803       H  0.84624235  0.08190813  0.12927968     0.11100
H2804       H  0.84230736  0.11660981  0.08737372     0.13000
H2805       H  0.82950189  0.09207832  0.05232811     0.09600
H2806       H  0.82969418  0.05461375  0.02998745     0.11700
H2807       H  0.87122263  0.02149614  0.08560451     0.08300
H2808       H  0.87149376  0.05896956  0.10755547     0.11000
C2809       C  0.84651802  0.94765944  0.06382947    -0.03600
C2810       C  0.85796088  0.94928493  0.08597301    -0.06200
C2811       C  0.85879673  0.92972583  0.10130679    -0.21300
C2812       C  0.84810249  0.90792545  0.09516010     0.24500
C2813       C  0.83724048  0.90592045  0.07261308    -0.18800
C2814       C  0.83654473  0.92560149  0.05709078    -0.08800
C2815       C  0.84834622  0.88849091  0.11337485    -0.19100
C2816       C  0.83717047  0.86723174  0.11148610    -0.23900
C2817       C  0.83677653  0.84935892  0.13118690     0.26500
C2818       C  0.83355798  0.82508506  0.12581826    -0.20700
C2819       C  0.83269959  0.80789824  0.14392401    -0.10300
C2820       C  0.83473027  0.81463585  0.16793354    -0.10800
C2821       C  0.83764726  0.83900639  0.17329208    -0.03800
C2822       C  0.83858032  0.85613607  0.15521071    -0.18900
H2823       H  0.86612643  0.96584594  0.09167944     0.10200
H2824       H  0.86748083  0.93186157  0.11837509     0.10300
H2825       H  0.82901808  0.88945972  0.06687400     0.09900
H2826       H  0.82770133  0.92370068  0.04008496     0.11000
H2827       H  0.85815088  0.89224890  0.12957627     0.11100
H2828       H  0.82823526  0.86239041  0.09511488     0.13000
H2829       H  0.83184378  0.81937336  0.10751666     0.09600
H2830       H  0.83031999  0.78933930  0.13907389     0.11700
H2831       H  0.83910583  0.84495568  0.19153323     0.08300
H2832       H  0.84018126  0.87470271  0.16024709     0.11000
C2833       C  0.83048697  0.42928031  0.03867674    -0.03600
C2834       C  0.82423725  0.43909567  0.06075304    -0.06200
C2835       C  0.82526182  0.42520139  0.08141205    -0.21300
C2836       C  0.83243280  0.40121652  0.08046614     0.24500
C2837       C  0.83935368  0.39158342  0.05845478    -0.18800
C2838       C  0.83825669  0.40541698  0.03782137    -0.08800
C2839       C  0.83274184  0.38689546  0.10275376    -0.19100
C2840       C  0.82993735  0.36299594  0.10285917    -0.23900
C2841       C  0.82951613  0.34758000  0.12445682     0.26500
C2842       C  0.82632647  0.32299038  0.12105082    -0.20700
C2843       C  0.82598729  0.30732140  0.14025527    -0.10300
C2844       C  0.82889843  0.31572772  0.16361183    -0.10800
C2845       C  0.83177901  0.34041237  0.16724331    -0.03800
C2846       C  0.83215080  0.35621647  0.14786704    -0.18900
H2847       H  0.81823021  0.45741487  0.06204912     0.10200
H2848       H  0.82005311  0.43311159  0.09815950     0.10300
H2849       H  0.84590209  0.37348067  0.05705426     0.09900
H2850       H  0.84359119  0.39737004  0.02117867     0.11000
H2851       H  0.83419278  0.39661587  0.11930899     0.11100
H2852       H  0.82718510  0.35397322  0.08602227     0.13000
H2853       H  0.82417497  0.31574325  0.10333666     0.09600
H2854       H  0.82354007  0.28848235  0.13665068     0.11700
H2855       H  0.83402400  0.34749632  0.18499980     0.08300
H2856       H  0.83461722  0.37498804  0.15148807     0.11000
C2857       C  0.83923202  0.31566766  0.82937020    -0.03600
C2858       C  0.84633196  0.30907706  0.85240408    -0.06200
C2859       C  0.84580451  0.32556419  0.87093914    -0.21300
C2860       C  0.83824510  0.34914612  0.86708166     0.24500
C2861       C  0.83172765  0.35605442  0.84388105    -0.18800
C2862       C  0.83232302  0.33945752  0.82519495    -0.08800
C2863       C  0.83672270  0.36516147  0.88815738    -0.19100
C2864       C  0.83414272  0.38914863  0.88762842    -0.23900
C2865       C  0.83351085  0.40387275  0.90975825     0.26500
C2866       C  0.82238499  0.42639121  0.90958960    -0.20700
C2867       C  0.82108760  0.44019979  0.93040261    -0.10300
C2868       C  0.83089303  0.43166292  0.95178361    -0.10800
C2869       C  0.84264470  0.40952198  0.95167552    -0.03800
C2870       C  0.84417323  0.39596384  0.93099267    -0.18900
H2871       H  0.85205818  0.29100677  0.85623415     0.10200
H2872       H  0.85108926  0.31971873  0.88853106     0.10300
H2873       H  0.82554170  0.37393256  0.84011949     0.09900
H2874       H  0.82664890  0.34504554  0.80765419     0.11000
H2875       H  0.83779411  0.35628770  0.90525341     0.11100
H2876       H  0.83212530  0.39834585  0.87079105     0.13000
H2877       H  0.81431842  0.43311679  0.89342481     0.09600
H2878       H  0.81195948  0.45721707  0.92989798     0.11700
H2879       H  0.85086526  0.40260870  0.96768525     0.08300
H2880       H  0.85401929  0.37940987  0.93182696     0.11000
C2881       C  0.02139865  0.21634836  0.04429978    -0.03600
C2882       C  0.03097056  0.22796663  0.06426123    -0.06200
C2883       C  0.01762969  0.22984521  0.08513591    -0.21300
C2884       C  0.99460289  0.22018436  0.08629289     0.24500
C2885       C  0.98575906  0.20721104  0.06681423    -0.18800
C2886       C  0.99892590  0.20552594  0.04598563    -0.08800
C2887       C  0.97990750  0.22421325  0.10771715    -0.19100
C2888       C  0.95604809  0.22591578  0.10634453    -0.23900
C2889       C  0.94014369  0.23009657  0.12686702     0.26500
C2890       C  0.91656106  0.23682342  0.12218734    -0.20700
C2891       C  0.90035827  0.23970842  0.14064596    -0.10300
C2892       C  0.90735999  0.23586943  0.16429799    -0.10800
C2893       C  0.93110048  0.22951484  0.16910708    -0.03800
C2894       C  0.94733358  0.22651576  0.15056779    -0.18900
H2895       H  0.04834516  0.23632265  0.06346279     0.10200
H2896       H  0.02494449  0.23956965  0.10009198     0.10300
H2897       H  0.96856796  0.19850385  0.06749843     0.09900
H2898       H  0.99136992  0.19591581  0.03107433     0.11000
H2899       H  0.98905359  0.22735443  0.12440110     0.11100
H2900       H  0.94756344  0.22500803  0.08901530     0.13000
H2901       H  0.91053614  0.23962163  0.10410163     0.09600
H2902       H  0.88224105  0.24469591  0.13631520     0.11700
H2903       H  0.93698640  0.22616990  0.18713837     0.08300
H2904       H  0.96516559  0.22074900  0.15493554     0.11000
C2905       C  0.01745267  0.21082339  0.95796229    -0.03600
C2906       C  0.99337060  0.20436567  0.96044820    -0.06200
C2907       C  0.97841897  0.20314831  0.94077544    -0.21300
C2908       C  0.98694606  0.20868930  0.91812275     0.24500
C2909       C  0.01116384  0.21451394  0.91526465    -0.18800
C2910       C  0.02636766  0.21542827  0.93507700    -0.08800
C2911       C  0.96970061  0.20840337  0.89822602    -0.19100
C2912       C  0.97016844  0.22426212  0.88028885    -0.23900
C2913       C  0.95062010  0.22615649  0.86255453     0.26500
C2914       C  0.95567132  0.23508341  0.83984456    -0.20700
C2915       C  0.93763035  0.23726650  0.82281322    -0.10300
C2916       C  0.91400263  0.23099121  0.82830271    -0.10800
C2917       C  0.90882751  0.22268122  0.85127385    -0.03800
C2918       C  0.92690990  0.22024945  0.86820611    -0.18900
H2919       H  0.98584554  0.20046859  0.97771758     0.10200
H2920       H  0.95987388  0.19850483  0.94337351     0.10300
H2921       H  0.01831584  0.21832860  0.89782851     0.09900
H2922       H  0.04486257  0.22024777  0.93255832     0.11000
H2923       H  0.95490842  0.19599986  0.89965529     0.11100
H2924       H  0.98503626  0.23658244  0.87875278     0.13000
H2925       H  0.97369088  0.24012354  0.83518332     0.09600
H2926       H  0.94218056  0.24398384  0.80535397     0.11700
H2927       H  0.89082043  0.21778139  0.85610608     0.08300
H2928       H  0.92211432  0.21416517  0.88580234     0.11000
C2929       C  0.33804166  0.65637219  0.17284499    -0.03600
C2930       C  0.33819963  0.63237050  0.18045414    -0.06200
C2931       C  0.33975311  0.61367393  0.16399533    -0.21300
C2932       C  0.34150959  0.61850113  0.13960354     0.24500
C2933       C  0.34117862  0.64247636  0.13199182    -0.18800
C2934       C  0.33959326  0.66112774  0.14838252    -0.08800
C2935       C  0.34256441  0.59839695  0.12228690    -0.19100
C2936       C  0.35362898  0.60070657  0.10118178    -0.23900
C2937       C  0.35318752  0.58302805  0.08140156     0.26500
C2938       C  0.36237070  0.59046361  0.05944747    -0.20700
C2939       C  0.36157440  0.57556195  0.03965425    -0.10300
C2940       C  0.35167804  0.55257332  0.04118685    -0.10800
C2941       C  0.34293314  0.54472083  0.06330228    -0.03800
C2942       C  0.34359767  0.55981161  0.08323932    -0.18900
H2943       H  0.33700230  0.62796818  0.19914797     0.10200
H2944       H  0.33971309  0.59539951  0.17034024     0.10300
H2945       H  0.34156537  0.64696545  0.11330205     0.09900
H2946       H  0.33937439  0.67930423  0.14179420     0.11000
H2947       H  0.33392215  0.58176855  0.12709978     0.11100
H2948       H  0.36314529  0.61721946  0.09766268     0.13000
H2949       H  0.36987898  0.60818130  0.05741709     0.09600
H2950       H  0.36858207  0.58224988  0.02302163     0.11700
H2951       H  0.33516967  0.52710172  0.06510881     0.08300
H2952       H  0.33649493  0.55320539  0.09981802     0.11000
C2953       C  0.35335041  0.54634273  0.95410401    -0.03600
C2954       C  0.34088783  0.53752961  0.93425574    -0.06200
C2955       C  0.34066382  0.55034452  0.91290261    -0.21300
C2956       C  0.35286513  0.57213568  0.91106227     0.24500
C2957       C  0.36685698  0.57990278  0.93033476    -0.18800
C2958       C  0.36687401  0.56727112  0.95171293    -0.08800
C2959       C  0.34986503  0.58703744  0.88942414    -0.19100
C2960       C  0.34992960  0.61107309  0.89067048    -0.23900
C2961       C  0.34597365  0.62752500  0.87033127     0.26500
C2962       C  0.34153743  0.65165142  0.87537987    -0.20700
C2963       C  0.33878309  0.66829801  0.85713590    -0.10300
C2964       C  0.34044359  0.66123754  0.83326407    -0.10800
C2965       C  0.34462286  0.63699330  0.82812592    -0.03800
C2966       C  0.34741320  0.62029302  0.84644819    -0.18900
H2967       H  0.33041198  0.52133020  0.93554291     0.10200
H2968       H  0.33006946  0.54379583  0.89818248     0.10300
H2969       H  0.37742016  0.59603091  0.92912329     0.09900
H2970       H  0.37711378  0.57413976  0.96653231     0.11000
H2971       H  0.34561240  0.57809078  0.87287490     0.11100
H2972       H  0.35204351  0.61941220  0.90795454     0.13000
H2973       H  0.34035188  0.65773556  0.89360204     0.09600
H2974       H  0.33548297  0.68675406  0.86180920     0.11700
H2975       H  0.34612261  0.63093758  0.80992982     0.08300
H2976       H  0.35122114  0.60198647  0.84173760     0.11000
C2977       C  0.25312608  0.73336876  0.16749929    -0.03600
C2978       C  0.23022961  0.72507113  0.17353902    -0.06200
C2979       C  0.21185064  0.72478826  0.15671177    -0.21300
C2980       C  0.21571567  0.73315174  0.13353274     0.24500
C2981       C  0.23884768  0.74069565  0.12726342    -0.18800
C2982       C  0.25729399  0.74082475  0.14406616    -0.08800
C2983       C  0.19535479  0.73353641  0.11638199    -0.19100
C2984       C  0.19448001  0.74860475  0.09767297    -0.23900
C2985       C  0.17507799  0.74976169  0.07947981     0.26500
C2986       C  0.17876202  0.76471670  0.05980887    -0.20700
C2987       C  0.16246576  0.76544035  0.04111849    -0.10300
C2988       C  0.14177839  0.75134796  0.04152897    -0.10800
C2989       C  0.13714412  0.73740168  0.06179955    -0.03800
C2990       C  0.15370034  0.73649453  0.08060022    -0.18900
H2991       H  0.22644394  0.71887269  0.19137272     0.10200
H2992       H  0.19440030  0.71848906  0.16198277     0.10300
H2993       H  0.24292042  0.74636723  0.10936583     0.09900
H2994       H  0.27471634  0.74718609  0.13880940     0.11000
H2995       H  0.18055269  0.72163121  0.11990287     0.11100
H2996       H  0.20909906  0.76103096  0.09522518     0.13000
H2997       H  0.19477895  0.77542868  0.05848251     0.09600
H2998       H  0.16644066  0.77663711  0.02592652     0.11700
H2999       H  0.12131435  0.72638201  0.06263780     0.08300
H3000       H  0.14979492  0.72507739  0.09557636     0.11000
C3001       C  0.25587430  0.73942579  0.83396569    -0.03600
C3002       C  0.26348638  0.74304224  0.85748247    -0.06200
C3003       C  0.24705015  0.74518575  0.87593456    -0.21300
C3004       C  0.22246038  0.74374228  0.87161266     0.24500
C3005       C  0.21469603  0.73949414  0.84815212    -0.18800
C3006       C  0.23123783  0.73737858  0.82957225    -0.08800
C3007       C  0.20612845  0.74689060  0.89232380    -0.19100
C3008       C  0.18209238  0.74718416  0.89145385    -0.23900
C3009       C  0.16708003  0.74995909  0.91316513     0.26500
C3010       C  0.14398436  0.74028013  0.91346095    -0.20700
C3011       C  0.13002499  0.74124767  0.93406958    -0.10300
C3012       C  0.13889409  0.75197745  0.95484491    -0.10800
C3013       C  0.16150520  0.76275672  0.95415771    -0.03800
C3014       C  0.17535421  0.76191777  0.93357402    -0.18900
H3015       H  0.28223432  0.74460709  0.86169657     0.10200
H3016       H  0.25367521  0.74827813  0.89375557     0.10300
H3017       H  0.19600968  0.73791386  0.84388288     0.09900
H3018       H  0.22468237  0.73436145  0.81172256     0.11000
H3019       H  0.21470172  0.74873250  0.90950983     0.11100
H3020       H  0.17293887  0.74421559  0.87476150     0.13000
H3021       H  0.13700153  0.73126634  0.89792221     0.09600
H3022       H  0.11267451  0.73280672  0.93398293     0.11700
H3023       H  0.16871174  0.77158033  0.96970721     0.08300
H3024       H  0.19254745  0.77061830  0.93382891     0.11000
loop_ 
_geom_bond_atom_site_label_1 
_geom_bond_atom_site_label_2 
_geom_bond_distance 
_geom_bond_site_symmetry_2 
_ccdc_geom_bond_type 
C1            N2   1.355       .  A
C1            N6   1.359       .  A
C1         C3012   1.486       .  S
N2            C3   1.357   1_556  A
C3            N4   1.363       .  A
C3         C2988   1.486       .  S
N4            C5   1.367   1_554  A
C5            N6   1.363       .  A
C5           C51   1.479       .  S
C7            N8   1.361       .  A
C7           N12   1.360   1_554  A
C7         C2940   1.488       .  S
N8            C9   1.362       .  A
C9           N10   1.355   1_554  A
C9           C71   1.465       .  S
N10          C11   1.354       .  A
C11          N12   1.358       .  A
C11        C2953   1.477       .  S
C13          N14   1.353       .  A
C13          N18   1.352       .  A
C13        C2881   1.473       .  S
N14          C15   1.359   1_554  A
C15          N16   1.364       .  A
C15          C63   1.466       .  S
N16          C17   1.362       .  A
C17          N18   1.355   1_556  A
C17        C2905   1.482       .  S
C19          N20   1.363       .  A
C19          N24   1.356       .  A
C19        C2868   1.486       .  S
N20          C21   1.366       .  A
C21          N22   1.360   1_556  A
C21          C57   1.476       .  S
N22          C23   1.359       .  A
C23          N24   1.355   1_554  A
C23        C2833   1.483       .  S
C25          N26   1.357   1_545  A
C25          N30   1.359       .  A
C25        C2796   1.481       .  S
N26          C27   1.358       .  A
C27          N28   1.360       .  A
C27        C2809   1.487       .  S
N28          C29   1.363       .  A
C29          N30   1.360   1_565  A
C29          C75   1.471   1_554  S
C31          N32   1.352   1_545  A
C31          N36   1.356       .  A
C31        C2737   1.476       .  S
N32          C33   1.355       .  A
C33          N34   1.364       .  A
C33        C2761   1.481       .  S
N34          C35   1.366       .  A
C35          N36   1.362   1_565  A
C35          C95   1.474       .  S
C37          N38   1.358       .  A
C37          N42   1.360       .  A
C37        C2713   1.486       .  S
N38          C39   1.358       .  A
C39          N40   1.363   1_565  A
C39          C87   1.470   1_556  S
N40          C41   1.361       .  A
C41          N42   1.361   1_545  A
C41        C2700   1.492       .  S
C43          N44   1.358       .  A
C43          N48   1.358       .  A
C43        C2676   1.484       .  S
N44          C45   1.359       .  A
C45          N46   1.362   1_565  A
C45          C83   1.470       .  S
N46          C47   1.360       .  A
C47          N48   1.358   1_545  A
C47        C2641   1.488       .  S
C49          N50   1.361       .  A
C49          N54   1.351   1_554  A
C49        C2604   1.477       .  S
N50          C51   1.364   1_554  A
C51          N52   1.367       .  A
N52          C53   1.362       .  A
C53          N54   1.352       .  A
C53        C2617   1.484       .  S
C55          N56   1.362       .  A
C55          N60   1.351   1_554  A
C55        C2556   1.482       .  S
N56          C57   1.367   1_554  A
C57          N58   1.362       .  A
N58          C59   1.359       .  A
C59          N60   1.352       .  A
C59        C2580   1.476       .  S
C61          N62   1.361       .  A
C61          N66   1.360       .  A
C61        C2521   1.484       .  S
N62          C63   1.359       .  A
C63          N64   1.359   1_556  A
N64          C65   1.356       .  A
C65          N66   1.357   1_554  A
C65        C2508   1.486       .  S
C67          N68   1.352   1_556  A
C67          N72   1.359       .  A
C67        C2473   1.481       .  S
N68          C69   1.352       .  A
C69          N70   1.356       .  A
C69        C2460   1.473       .  S
N70          C71   1.358       .  A
C71          N72   1.364   1_554  A
C73          N74   1.361       .  A
C73          N78   1.355   1_545  A
C73        C2401   1.482       .  S
N74          C75   1.364   1_545  A
C75          N76   1.360       .  A
N76          C77   1.357       .  A
C77          N78   1.355       .  A
C77        C2436   1.477       .  S
C79          N80   1.355   1_545  A
C79          N84   1.358       .  A
C79        C2353   1.479       .  S
N80          C81   1.355       .  A
C81          N82   1.359       .  A
C81        C2377   1.479       .  S
N82          C83   1.363       .  A
C83          N84   1.361   1_565  A
C85          N86   1.361       .  A
C85          N90   1.356       .  A
C85        C2340   1.482       .  S
N86          C87   1.364       .  A
C87          N88   1.359   1_565  A
N88          C89   1.358       .  A
C89          N90   1.355   1_545  A
C89        C2316   1.481       .  S
C91          N92   1.355       .  A
C91          N96   1.364       .  A
C91        C2292   1.484       .  S
N92          C93   1.352   1_565  A
C93          N94   1.356       .  A
C93        C2257   1.483       .  S
N94          C95   1.363   1_545  A
C95          N96   1.366       .  A
C97          N98   1.363       .  A
C97         N102   1.356       .  A
C97        C2233   1.491       .  S
N98          C99   1.366   1_545  A
C99         N100   1.366   1_565  A
C99         C111   1.479       .  S
N100        C101   1.361       .  A
C101        N102   1.354       .  A
C101       C2220   1.488       .  S
C103        N104   1.356       .  A
C103        N108   1.353       .  A
C103       C2185   1.480       .  S
N104        C105   1.362       .  A
C105        N106   1.365       .  A
C105        C141   1.474       .  S
N106        C107   1.363       .  A
C107        N108   1.356       .  A
C107       C2161   1.483       .  S
C109        N110   1.360       .  A
C109        N114   1.352       .  A
C109       C2113   1.479       .  S
N110        C111   1.364       .  A
C111        N112   1.366       .  A
N112        C113   1.363       .  A
C113        N114   1.355       .  A
C113       C2137   1.488       .  S
C115        N116   1.356       .  A
C115        N120   1.355       .  A
C115       C2089   1.480       .  S
N116        C117   1.358       .  A
C117        N118   1.362       .  A
C117        C131   1.468       .  S
N118        C119   1.361       .  A
C119        N120   1.356       .  A
C119       C2065   1.483       .  S
C121        N122   1.358       .  A
C121        N126   1.356       .  A
C121       C2041   1.480       .  S
N122        C123   1.358       .  A
C123        N124   1.357       .  A
C123       C2017   1.480       .  S
N124        C125   1.358       .  A
C125        N126   1.358       .  A
C125        C137   1.461   1_565  S
C127        N128   1.356       .  A
C127        N132   1.360       .  A
C127       C1993   1.480       .  S
N128        C129   1.356       .  A
C129        N130   1.357       .  A
C129       C1980   1.483       .  S
N130        C131   1.360       .  A
C131        N132   1.360       .  A
C133        N134   1.358       .  A
C133        N138   1.358       .  A
C133       C1945   1.482       .  S
N134        C135   1.359       .  A
C135        N136   1.356       .  A
C135       C1921   1.479       .  S
N136        C137   1.357       .  A
C137        N138   1.357       .  A
C139        N140   1.363       .  A
C139        N144   1.356       .  A
C139       C1884   1.482       .  S
N140        C141   1.365       .  A
C141        N142   1.362       .  A
N142        C143   1.357       .  A
C143        N144   1.354       .  A
C143       C1897   1.485       .  S
C145        N146   1.355       .  A
C145        N150   1.356       .  A
C145       C1860   1.478       .  S
N146        C147   1.356       .  A
C147        N148   1.359       .  A
C147       C1836   1.474       .  S
N148        C149   1.360       .  A
C149        N150   1.359       .  A
C149        C291   1.466       .  S
C151        N152   1.356       .  A
C151        N156   1.360       .  A
C151       C1812   1.482       .  S
N152        C153   1.356       .  A
C153        N154   1.356       .  A
C153        C363   1.463       .  S
N154        C155   1.357       .  A
C155        N156   1.360       .  A
C155       C1777   1.476       .  S
O157       Zr193   2.472       .  S
O157        C168   1.299       .  A
O158       Zr192   2.434       .  S
O158        C169   1.291       .  A
O159       Zr165   2.439       .  S
O159        C170   1.292       .  A
O160       Zr165   2.437       .  S
O160        C171   1.292       .  A
O161       Zr195   2.449       .  S
O161        C171   1.294       .  A
O162       Zr194   2.435       .  S
O162        C170   1.293       .  A
O163       Zr165   2.433       .  S
O163        C169   1.292       .  A
O164       Zr165   2.419       .  S
O164        C168   1.289       .  A
Zr165       O166   2.333       .  S
Zr165       O167   2.341       .  S
Zr165       O175   2.344       .  S
Zr165       O173   2.334       .  S
O166       Zr192   2.336       .  S
O166       Zr195   2.339       .  S
O167       Zr193   2.341       .  S
O167       Zr194   2.339       .  S
C168       C2977   1.487       .  S
C169       C2004   1.481       .  S
C170       C1788   1.484       .  S
C171       C2052   1.487       .  S
H172        O173   0.966       .  S
O173       Zr192   2.341       .  S
O173       Zr194   2.345       .  S
H174        O175   0.967       .  S
O175       Zr193   2.352       .  S
O175       Zr195   2.347       .  S
O176       Zr192   2.423       .  S
O176        C199   1.291       .  A
O177       Zr193   2.468       .  S
O177        C200   1.298       .  A
O178       Zr194   2.430       .  S
O178        C201   1.292       .  A
O179       Zr195   2.450       .  S
O179        C202   1.294       .  A
O180       Zr195   2.441       .  S
O180        C203   1.294       .  A
O181       Zr194   2.438       .  S
O181        C204   1.293       .  A
O182       Zr196   2.443       .  S
O182        C205   1.294       .  A
O183       Zr196   2.421       .  S
O183        C206   1.290       .  A
O184       Zr194   2.445       .  S
O184        C205   1.293       .  A
O185       Zr195   2.447       .  S
O185        C206   1.294       .  A
O186       Zr192   2.439       .  S
O186        C201   1.293       .  A
O187       Zr193   2.450       .  S
O187        C204   1.296       .  A
O188       Zr193   2.435       .  S
O188        C203   1.292       .  A
O189       Zr192   2.443       .  S
O189        C202   1.294       .  A
O190       Zr196   2.451       .  S
O190        C199   1.294       .  A
O191       Zr196   2.430       .  S
O191        C200   1.292       .  A
Zr192       O198   2.341       .  S
Zr192       O210   2.341       .  S
Zr193       O197   2.341       .  S
Zr193       O208   2.349       .  S
Zr194       O198   2.340       .  S
Zr194       O208   2.338       .  S
Zr195       O197   2.339       .  S
Zr195       O210   2.345       .  S
Zr196       O197   2.340       .  S
Zr196       O198   2.330       .  S
Zr196       O210   2.341       .  S
Zr196       O208   2.341       .  S
C199       C1740   1.484       .  S
C200       C1705   1.491       .  S
C201       C1825   1.481       .  S
C202       C1764   1.489       .  S
C203       C2329   1.484       .  S
C204       C2929   1.489       .  S
C205       C1681   1.490       .  S
C206       C2281   1.481       .  S
H207        O208   0.966       .  S
H209        O210   0.967       .  S
C211        N212   1.359       .  A
C211        N216   1.352       .  A
C211       C1657   1.481       .  S
N212        C213   1.366       .  A
C213        N214   1.364       .  A
C213        C605   1.472       .  S
N214        C215   1.360       .  A
C215        N216   1.355       .  A
C215       C1633   1.484       .  S
C217        N218   1.362       .  A
C217        N222   1.358       .  A
C217       C1609   1.490       .  S
N218        C219   1.363   1_545  A
C219        N220   1.363   1_565  A
C219        C287   1.473       .  S
N220        C221   1.358       .  A
C221        N222   1.357       .  A
C221       C1596   1.483       .  S
O223       Zr259   2.448       .  S
O223        C234   1.295       .  A
O224       Zr258   2.425       .  S
O224        C235   1.290       .  A
O225       Zr231   2.438       .  S
O225        C236   1.292       .  A
O226       Zr231   2.426       .  S
O226        C237   1.291       .  A
O227       Zr261   2.456       .  S
O227        C237   1.296       .  A
O228       Zr260   2.428       .  S
O228        C236   1.292       .  A
O229       Zr231   2.462       .  S
O229        C235   1.297       .  A
O230       Zr231   2.448       .  S
O230        C234   1.294       .  A
Zr231       O232   2.341       .  S
Zr231       O233   2.338       .  S
Zr231       O241   2.352       .  S
Zr231       O239   2.337       .  S
O232       Zr258   2.336       .  S
O232       Zr261   2.345       .  S
O233       Zr259   2.340       .  S
O233       Zr260   2.342       .  S
C234       C2689   1.492       .  S
C235       C2484   1.487       .  S
C236       C1524   1.478       .  S
C237       C2532   1.483       .  S
H238        O239   0.968       .  S
O239       Zr258   2.339       .  S
O239       Zr260   2.344       .  S
H240        O241   0.967       .  S
O241       Zr259   2.341       .  S
O241       Zr261   2.348       .  S
O242       Zr258   2.431       .  S
O242        C265   1.291       .  A
O243       Zr259   2.449       .  S
O243        C266   1.294       .  A
O244       Zr260   2.464       .  S
O244        C267   1.298       .  A
O245       Zr261   2.444       .  S
O245        C268   1.294       .  A
O246       Zr261   2.443       .  S
O246        C269   1.294       .  A
O247       Zr260   2.462       .  S
O247        C270   1.297       .  A
O248       Zr262   2.436       .  S
O248        C271   1.292       .  A
O249       Zr262   2.427       .  S
O249        C272   1.291       .  A
O250       Zr260   2.435       .  S
O250        C271   1.292       .  A
O251       Zr261   2.455       .  S
O251        C272   1.296       .  A
O252       Zr258   2.417       .  S
O252        C267   1.289       .  A
O253       Zr259   2.425       .  S
O253        C270   1.291       .  A
O254       Zr259   2.450       .  S
O254        C269   1.295       .  A
O255       Zr258   2.421       .  S
O255        C268   1.290       .  A
O256       Zr262   2.432       .  S
O256        C265   1.291       .  A
O257       Zr262   2.439       .  S
O257        C266   1.293       .  A
Zr258       O264   2.337       .  S
Zr258       O276   2.334       .  S
Zr259       O263   2.335       .  S
Zr259       O274   2.343       .  S
Zr260       O264   2.341       .  S
Zr260       O274   2.341       .  S
Zr261       O263   2.342       .  S
Zr261       O276   2.344       .  S
Zr262       O263   2.342       .  S
Zr262       O264   2.338       .  S
Zr262       O276   2.340       .  S
Zr262       O274   2.333       .  S
C265       C1537   1.478       .  S
C266       C1585   1.490       .  S
C267       C1500   1.485       .  S
C268       C1561   1.480       .  S
C269       C2209   1.492       .  S
C270       C2652   1.489       .  S
C271       C1644   1.477       .  S
C272       C2172   1.486       .  S
H273        O274   0.965       .  S
H275        O276   0.968       .  S
C277        N278   1.357       .  A
C277        N282   1.359       .  A
C277       C1729   1.483       .  S
N278        C279   1.358       .  A
C279        N280   1.358       .  A
C279       C1465   1.483       .  S
N280        C281   1.361       .  A
C281        N282   1.359       .  A
C281        C437   1.468       .  S
C283        N284   1.357       .  A
C283        N288   1.356       .  A
C283       C1441   1.483       .  S
N284        C285   1.359       .  A
C285        N286   1.363       .  A
C285       C1753   1.487       .  S
N286        C287   1.363       .  A
C287        N288   1.359       .  A
C289        N290   1.355       .  A
C289        N294   1.353       .  A
C289       C1548   1.477       .  S
N290        C291   1.360       .  A
C291        N292   1.363       .  A
N292        C293   1.361       .  A
C293        N294   1.354       .  A
C293       C1428   1.481       .  S
C295        N296   1.356       .  A
C295        N300   1.359       .  A
C295       C1572   1.476       .  S
N296        C297   1.356       .  A
C297        N298   1.360       .  A
C297        C467   1.464       .  S
N298        C299   1.359       .  A
C299        N300   1.359       .  A
C299       C1404   1.486       .  S
O301       Zr337   2.453       .  S
O301        C312   1.296       .  A
O302       Zr336   2.441       .  S
O302        C313   1.293       .  A
O303       Zr309   2.460       .  S
O303        C314   1.297       .  A
O304       Zr309   2.443       .  S
O304        C315   1.294       .  A
O305       Zr339   2.438       .  S
O305        C315   1.294       .  A
O306       Zr338   2.418       .  S
O306        C314   1.289       .  A
O307       Zr309   2.438       .  S
O307        C313   1.293       .  A
O308       Zr309   2.444       .  S
O308        C312   1.293       .  A
Zr309       O310   2.345       .  S
Zr309       O311   2.338       .  S
Zr309       O319   2.345       .  S
Zr309       O317   2.340       .  S
O310       Zr336   2.339       .  S
O310       Zr339   2.339       .  S
O311       Zr337   2.338       .  S
O311       Zr338   2.342       .  S
C312       C3001   1.493       .  S
C313       C2076   1.485       .  S
C314       C2124   1.480       .  S
C315       C1393   1.486       .  S
H316        O317   0.967       .  S
O317       Zr336   2.340       .  S
O317       Zr338   2.341       .  S
H318        O319   0.965       .  S
O319       Zr337   2.337       .  S
O319       Zr339   2.348       .  S
O320       Zr336   2.443       .  S
O320        C343   1.294       .  A
O321       Zr337   2.439       .  S
O321        C344   1.293       .  A
O322       Zr338   2.456       .  S
O322        C345   1.296       .  A
O323       Zr339   2.445       .  S
O323        C346   1.294       .  A
O324       Zr339   2.434       .  S
O324        C347   1.292       .  A
O325       Zr338   2.451       .  S
O325        C348   1.296       .  A
O326       Zr340   2.437       .  S
O326        C349   1.292       .  A
O327       Zr340   2.436       .  S
O327        C350   1.293       .  A
O328       Zr338   2.435       .  S
O328        C349   1.293       .  A
O329       Zr339   2.453       .  S
O329        C350   1.295       .  A
O330       Zr336   2.433       .  S
O330        C345   1.292       .  A
O331       Zr337   2.435       .  S
O331        C348   1.292       .  A
O332       Zr337   2.441       .  S
O332        C347   1.294       .  A
O333       Zr336   2.426       .  S
O333        C346   1.290       .  A
O334       Zr340   2.436       .  S
O334        C343   1.292       .  A
O335       Zr340   2.424       .  S
O335        C344   1.291       .  A
Zr336       O342   2.342       .  S
Zr336       O354   2.341       .  S
Zr337       O341   2.340       .  S
Zr337       O352   2.347       .  S
Zr338       O342   2.338       .  S
Zr338       O352   2.339       .  S
Zr339       O341   2.334       .  S
Zr339       O354   2.337       .  S
Zr340       O341   2.338       .  S
Zr340       O342   2.342       .  S
Zr340       O354   2.340       .  S
Zr340       O352   2.342       .  S
C343       C1476   1.483       .  S
C344       C1369   1.479       .  S
C345       C1452   1.487       .  S
C346       C1417   1.482       .  S
C347       C2964   1.484       .  S
C348       C2724   1.484       .  S
C349       C2665   1.484       .  S
C350       C1356   1.489       .  S
H351        O352   0.967       .  S
H353        O354   0.966       .  S
C355        N356   1.356       .  A
C355        N360   1.359       .  A
C355       C1308   1.485       .  S
N356        C357   1.357       .  A
C357        N358   1.363       .  A
C357       C1332   1.487       .  S
N358        C359   1.363       .  A
C359        N360   1.361       .  A
C359        C461   1.476       .  S
C361        N362   1.359       .  A
C361        N366   1.357       .  A
C361       C1249   1.482       .  S
N362        C363   1.361       .  A
C363        N364   1.359       .  A
N364        C365   1.356       .  A
C365        N366   1.356       .  A
C365       C1273   1.482       .  S
C367        N368   1.358       .  A
C367        N372   1.356       .  A
C367       C1225   1.481       .  S
N368        C369   1.360       .  A
C369        N370   1.361       .  A
C369       C1692   1.486       .  S
N370        C371   1.362       .  A
C371        N372   1.356       .  A
C371        C525   1.467       .  S
C373        N374   1.360       .  A
C373        N378   1.358       .  A
C373       C1201   1.482       .  S
N374        C375   1.359       .  A
C375        N376   1.361       .  A
C375        C455   1.471   1_554  S
N376        C377   1.360       .  A
C377        N378   1.357       .  A
C377       C1716   1.487       .  S
O379       Zr415   2.444       .  S
O379        C390   1.294       .  A
O380       Zr414   2.433       .  S
O380        C391   1.292       .  A
O381       Zr387   2.446       .  S
O381        C392   1.294       .  A
O382       Zr387   2.444       .  S
O382        C393   1.293       .  A
O383       Zr417   2.446       .  S
O383        C393   1.294       .  A
O384       Zr416   2.432       .  S
O384        C392   1.291       .  A
O385       Zr387   2.437       .  S
O385        C391   1.293       .  A
O386       Zr387   2.446       .  S
O386        C390   1.294       .  A
Zr387       O388   2.343       .  S
Zr387       O389   2.340       .  S
Zr387       O397   2.343       .  S
Zr387       O395   2.344       .  S
O388       Zr414   2.344       .  S
O388       Zr417   2.340       .  S
O389       Zr415   2.340       .  S
O389       Zr416   2.336       .  S
C390       C2820   1.490       .  S
C391       C2545   1.482       .  S
C392       C2593   1.480       .  S
C393       C1212   1.483       .  S
H394        O395   0.967       .  S
O395       Zr414   2.340       .  S
O395       Zr416   2.339       .  S
H396        O397   0.966       .  S
O397       Zr415   2.339       .  S
O397       Zr417   2.341       .  S
O398       Zr414   2.422       .  S
O398        C421   1.291       .  A
O399       Zr415   2.430       .  S
O399        C422   1.292       .  A
O400       Zr416   2.422       .  S
O400        C423   1.289       .  A
O401       Zr417   2.419       .  S
O401        C424   1.290       .  A
O402       Zr417   2.419       .  S
O402        C425   1.289       .  A
O403       Zr416   2.417       .  S
O403        C426   1.290       .  A
O404       Zr418   2.444       .  S
O404        C427   1.293       .  A
O405       Zr418   2.441       .  S
O405        C428   1.294       .  A
O406       Zr416   2.443       .  S
O406        C427   1.294       .  A
O407       Zr417   2.446       .  S
O407        C428   1.294       .  A
O408       Zr414   2.470       .  S
O408        C423   1.299       .  A
O409       Zr415   2.446       .  S
O409        C426   1.294       .  A
O410       Zr415   2.463       .  S
O410        C425   1.297       .  A
O411       Zr414   2.462       .  S
O411        C424   1.297       .  A
O412       Zr418   2.461       .  S
O412        C421   1.296       .  A
O413       Zr418   2.457       .  S
O413        C422   1.297       .  A
Zr414       O420   2.339       .  S
Zr414       O432   2.346       .  S
Zr415       O419   2.344       .  S
Zr415       O430   2.349       .  S
Zr416       O420   2.332       .  S
Zr416       O430   2.335       .  S
Zr417       O419   2.339       .  S
Zr417       O432   2.341       .  S
Zr418       O419   2.349       .  S
Zr418       O420   2.345       .  S
Zr418       O432   2.341       .  S
Zr418       O430   2.341       .  S
C421       C1297   1.485       .  S
C422       C1177   1.488       .  S
C423       C1260   1.488       .  S
C424       C1236   1.482       .  S
C425       C2772   1.486       .  S
C426       C2028   1.480       .  S
C427       C1969   1.486       .  S
C428       C1153   1.490       .  S
H429        O430   0.966       .  S
H431        O432   0.966       .  S
C433        N434   1.359       .  A
C433        N438   1.356       .  A
C433       C1129   1.479       .  S
N434        C435   1.360       .  A
C435        N436   1.362       .  A
C435       C1164   1.489       .  S
N436        C437   1.361       .  A
C437        N438   1.356       .  A
C439        N440   1.357       .  A
C439        N444   1.357       .  A
C439       C1116   1.486       .  S
N440        C441   1.360       .  A
C441        N442   1.365       .  A
C441        C611   1.472   1_565  S
N442        C443   1.363       .  A
C443        N444   1.358       .  A
C443       C1188   1.487       .  S
C445        N446   1.361       .  A
C445        N450   1.353       .  A
C445       C1081   1.484       .  S
N446        C447   1.365       .  A
C447        N448   1.368       .  A
C447        C591   1.479       .  S
N448        C449   1.362       .  A
C449        N450   1.353       .  A
C449       C1345   1.490       .  S
C451        N452   1.358       .  A
C451        N456   1.357       .  A
C451       C1380   1.478       .  S
N452        C453   1.358       .  A
C453        N454   1.362       .  A
C453       C1057   1.486       .  S
N454        C455   1.362       .  A
C455        N456   1.358       .  A
C457        N458   1.353       .  A
C457        N462   1.359       .  A
C457       C1044   1.482       .  S
N458        C459   1.353       .  A
C459        N460   1.362       .  A
C459       C1009   1.481       .  S
N460        C461   1.366       .  A
C461        N462   1.365       .  A
C463        N464   1.357       .  A
C463        N468   1.356       .  A
C463        C996   1.478       .  S
N464        C465   1.357       .  A
C465        N466   1.359       .  A
C465        C961   1.479       .  S
N466        C467   1.360       .  A
C467        N468   1.356       .  A
O469       Zr505   2.465       .  S
O469        C480   1.298       .  A
O470       Zr504   2.433       .  S
O470        C481   1.291       .  A
O471       Zr477   2.461       .  S
O471        C482   1.296       .  A
O472       Zr477   2.454       .  S
O472        C483   1.296       .  A
O473       Zr507   2.434       .  S
O473        C483   1.292       .  A
O474       Zr506   2.416       .  S
O474        C482   1.290       .  A
O475       Zr477   2.434       .  S
O475        C481   1.292       .  A
O476       Zr477   2.422       .  S
O476        C480   1.290       .  A
Zr477       O478   2.337       .  S
Zr477       O479   2.347       .  S
Zr477       O487   2.340       .  S
Zr477       O485   2.338       .  S
O478       Zr504   2.333       .  S
O478       Zr507   2.340       .  S
O479       Zr505   2.339       .  S
O479       Zr506   2.342       .  S
C480       C2628   1.488       .  S
C481       C2100   1.475       .  S
C482        C985   1.480       .  S
C483       C2148   1.486       .  S
H484        O485   0.965       .  S
O485       Zr504   2.331       .  S
O485       Zr506   2.348       .  S
H486        O487   0.966       .  S
O487       Zr505   2.337       .  S
O487       Zr507   2.347       .  S
O488       Zr504   2.427       .  S
O488        C511   1.291       .  A
O489       Zr505   2.454       .  S
O489        C512   1.295       .  A
O490       Zr506   2.443       .  S
O490        C513   1.294       .  A
O491       Zr507   2.457       .  S
O491        C514   1.295       .  A
O492       Zr507   2.442       .  S
O492        C515   1.294       .  A
O493       Zr506   2.449       .  S
O493        C516   1.294       .  A
O494       Zr508   2.437       .  S
O494        C517   1.292       .  A
O495       Zr508   2.429       .  S
O495        C518   1.291       .  A
O496       Zr506   2.447       .  S
O496        C517   1.294       .  A
O497       Zr507   2.445       .  S
O497        C518   1.294       .  A
O498       Zr504   2.429       .  S
O498        C513   1.291       .  A
O499       Zr505   2.434       .  S
O499        C516   1.292       .  A
O500       Zr505   2.428       .  S
O500        C515   1.291       .  A
O501       Zr504   2.431       .  S
O501        C514   1.292       .  A
O502       Zr508   2.443       .  S
O502        C511   1.293       .  A
O503       Zr508   2.423       .  S
O503        C512   1.291       .  A
Zr504       O510   2.339       .  S
Zr504       O522   2.334       .  S
Zr505       O509   2.350       .  S
Zr505       O520   2.344       .  S
Zr506       O510   2.335       .  S
Zr506       O520   2.335       .  S
Zr507       O509   2.340       .  S
Zr507       O522   2.340       .  S
Zr508       O509   2.343       .  S
Zr508       O510   2.331       .  S
Zr508       O522   2.340       .  S
Zr508       O520   2.346       .  S
C511       C1140   1.484       .  S
C512       C1068   1.485       .  S
C513       C1033   1.482       .  S
C514       C1105   1.491       .  S
C515       C2425   1.481       .  S
C516       C2569   1.483       .  S
C517       C1092   1.487       .  S
C518       C2388   1.484       .  S
H519        O520   0.967       .  S
H521        O522   0.968       .  S
C523        N524   1.358       .  A
C523        N528   1.353       .  A
C523        C924   1.477       .  S
N524        C525   1.361       .  A
C525        N526   1.364       .  A
N526        C527   1.358       .  A
C527        N528   1.352       .  A
C527        C937   1.476       .  S
C529        N530   1.353       .  A
C529        N534   1.354       .  A
C529        C900   1.469       .  S
N530        C531   1.355       .  A
C531        N532   1.363       .  A
C531        C599   1.467   1_554  S
N532        C533   1.363       .  A
C533        N534   1.357       .  A
C533        C865   1.479       .  S
O535       Zr571   2.435       .  S
O535        C546   1.292       .  A
O536       Zr570   2.445       .  S
O536        C547   1.293       .  A
O537       Zr543   2.438       .  S
O537        C548   1.292       .  A
O538       Zr543   2.427       .  S
O538        C549   1.291       .  A
O539       Zr573   2.454       .  S
O539        C549   1.295       .  A
O540       Zr572   2.433       .  S
O540        C548   1.293       .  A
O541       Zr543   2.421       .  S
O541        C547   1.290       .  A
O542       Zr543   2.428       .  S
O542        C546   1.290       .  A
Zr543       O544   2.336       .  S
Zr543       O545   2.334       .  S
Zr543       O553   2.335       .  S
Zr543       O551   2.338       .  S
O544       Zr570   2.340       .  S
O544       Zr573   2.341       .  S
O545       Zr571   2.335       .  S
O545       Zr572   2.338       .  S
C546       C2892   1.478       .  S
C547       C1908   1.483       .  S
C548       C1284   1.484       .  S
C549       C1956   1.485       .  S
H550        O551   0.967       .  S
O551       Zr570   2.342       .  S
O551       Zr572   2.340       .  S
H552        O553   0.966       .  S
O553       Zr571   2.335       .  S
O553       Zr573   2.341       .  S
O554       Zr570   2.436       .  S
O554        C577   1.293       .  A
O555       Zr571   2.429       .  S
O555        C578   1.291       .  A
O556       Zr572   2.438       .  S
O556        C579   1.293       .  A
O557       Zr573   2.431       .  S
O557        C580   1.292       .  A
O558       Zr573   2.439       .  S
O558        C581   1.293       .  A
O559       Zr572   2.450       .  S
O559        C582   1.295       .  A
O560       Zr574   2.443       .  S
O560        C583   1.294       .  A
O561       Zr574   2.429       .  S
O561        C584   1.291       .  A
O562       Zr572   2.433       .  S
O562        C583   1.292       .  A
O563       Zr573   2.451       .  S
O563        C584   1.295       .  A
O564       Zr570   2.452       .  S
O564        C579   1.295       .  A
O565       Zr571   2.425       .  S
O565        C582   1.291       .  A
O566       Zr571   2.440       .  S
O566        C581   1.293       .  A
O567       Zr570   2.439       .  S
O567        C580   1.293       .  A
O568       Zr574   2.436       .  S
O568        C577   1.292       .  A
O569       Zr574   2.432       .  S
O569        C578   1.292       .  A
Zr570       O576   2.337       .  S
Zr570       O588   2.350       .  S
Zr571       O575   2.337       .  S
Zr571       O586   2.342       .  S
Zr572       O576   2.338       .  S
Zr572       O586   2.337       .  S
Zr573       O575   2.339       .  S
Zr573       O588   2.347       .  S
Zr574       O575   2.339       .  S
Zr574       O576   2.336       .  S
Zr574       O588   2.342       .  S
Zr574       O586   2.337       .  S
C577        C817   1.479       .  S
C578        C889   1.475       .  S
C579       C1321   1.490       .  S
C580        C841   1.475       .  S
C581       C2785   1.482       .  S
C582       C2844   1.485       .  S
C583        C948   1.480       .  S
C584       C2748   1.484       .  S
H585        O586   0.966       .  S
H587        O588   0.968       .  S
C589        N590   1.359       .  A
C589        N594   1.353       .  A
C589       C1489   1.484       .  S
N590        C591   1.362       .  A
C591        N592   1.367       .  A
N592        C593   1.364       .  A
C593        N594   1.355       .  A
C593        C804   1.486       .  S
C595        N596   1.359       .  A
C595        N600   1.359       .  A
C595       C1513   1.480       .  S
N596        C597   1.356       .  A
C597        N598   1.358       .  A
C597        C780   1.487       .  S
N598        C599   1.362       .  A
C599        N600   1.358       .  A
C601        N602   1.354       .  A
C601        N606   1.362       .  A
C601        C745   1.483       .  S
N602        C603   1.354       .  A
C603        N604   1.357       .  A
C603        C828   1.481       .  S
N604        C605   1.361       .  A
C605        N606   1.365       .  A
C607        N608   1.354       .  A
C607        N612   1.360       .  A
C607        C852   1.476       .  S
N608        C609   1.353       .  A
C609        N610   1.359       .  A
C609        C721   1.481       .  S
N610        C611   1.364       .  A
C611        N612   1.362       .  A
O613       Zr649   2.452       .  S
O613        C624   1.295       .  A
O614       Zr648   2.448       .  S
O614        C625   1.294       .  A
O615       Zr621   2.445       .  S
O615        C626   1.295       .  A
O616       Zr621   2.444       .  S
O616        C627   1.293       .  A
O617       Zr651   2.430       .  S
O617        C627   1.292       .  A
O618       Zr650   2.443       .  S
O618        C626   1.293       .  A
O619       Zr621   2.442       .  S
O619        C625   1.294       .  A
O620       Zr621   2.434       .  S
O620        C624   1.292       .  A
Zr621       O622   2.333       .  S
Zr621       O623   2.341       .  S
Zr621       O631   2.344       .  S
Zr621       O629   2.344       .  S
O622       Zr648   2.340       .  S
O622       Zr651   2.339       .  S
O623       Zr649   2.343       .  S
O623       Zr650   2.339       .  S
C624       C2916   1.484       .  S
C625       C2196   1.489       .  S
C626       C2244   1.489       .  S
C627        C972   1.480       .  S
H628        O629   0.967       .  S
O629       Zr648   2.347       .  S
O629       Zr650   2.350       .  S
H630        O631   0.966       .  S
O631       Zr649   2.344       .  S
O631       Zr651   2.340       .  S
O632       Zr648   2.446       .  S
O632        C655   1.294       .  A
O633       Zr649   2.465       .  S
O633        C656   1.297       .  A
O634       Zr650   2.430       .  S
O634        C657   1.291       .  A
O635       Zr651   2.442       .  S
O635        C658   1.294       .  A
O636       Zr651   2.455       .  S
O636        C659   1.295       .  A
O637       Zr650   2.435       .  S
O637        C660   1.292       .  A
O638       Zr652   2.433       .  S
O638        C661   1.291       .  A
O639       Zr652   2.442       .  S
O639        C662   1.293       .  A
O640       Zr650   2.453       .  S
O640        C661   1.296       .  A
O641       Zr651   2.435       .  S
O641        C662   1.292       .  A
O642       Zr648   2.445       .  S
O642        C657   1.294       .  A
O643       Zr649   2.428       .  S
O643        C660   1.291       .  A
O644       Zr649   2.430       .  S
O644        C659   1.292       .  A
O645       Zr648   2.441       .  S
O645        C658   1.294       .  A
O646       Zr652   2.440       .  S
O646        C655   1.293       .  A
O647       Zr652   2.416       .  S
O647        C656   1.290       .  A
Zr648       O654   2.337       .  S
Zr648       O666   2.347       .  S
Zr649       O653   2.343       .  S
Zr649       O664   2.340       .  S
Zr650       O654   2.340       .  S
Zr650       O664   2.336       .  S
Zr651       O653   2.337       .  S
Zr651       O666   2.348       .  S
Zr652       O653   2.339       .  S
Zr652       O654   2.335       .  S
Zr652       O666   2.335       .  S
Zr652       O664   2.344       .  S
C655        C756   1.486       .  S
C656        C769   1.488       .  S
C657        C732   1.484       .  S
C658       C1020   1.482       .  S
C659       C2857   1.485       .  S
C660       C2412   1.478       .  S
C661       C2364   1.482       .  S
C662        C793   1.485       .  S
H663        O664   0.967       .  S
H665        O666   0.966       .  S
O667       Zr703   2.422       .  S
O667        C678   1.290       .  A
O668       Zr702   2.444       .  S
O668        C679   1.294       .  A
O669       Zr675   2.418       .  S
O669        C680   1.290       .  A
O670       Zr675   2.446       .  S
O670        C681   1.294       .  A
O671       Zr705   2.424       .  S
O671        C681   1.290       .  A
O672       Zr704   2.456       .  S
O672        C680   1.296       .  A
O673       Zr675   2.445       .  S
O673        C679   1.294       .  A
O674       Zr675   2.461       .  S
O674        C678   1.296       .  A
Zr675       O676   2.342       .  S
Zr675       O677   2.338       .  S
Zr675       O685   2.331       .  S
Zr675       O683   2.350       .  S
O676       Zr702   2.345       .  S
O676       Zr705   2.339       .  S
O677       Zr703   2.336       .  S
O677       Zr704   2.335       .  S
C678       C2497   1.484       .  S
C679       C1873   1.488       .  S
C680       C1932   1.483       .  S
C681       C1801   1.480       .  S
H682        O683   0.967       .  S
O683       Zr702   2.343       .  S
O683       Zr704   2.340       .  S
H684        O685   0.966       .  S
O685       Zr703   2.336       .  S
O685       Zr705   2.336       .  S
O686       Zr702   2.449       .  S
O686        C709   1.295       .  A
O687       Zr703   2.439       .  S
O687        C710   1.292       .  A
O688       Zr704   2.464       .  S
O688        C711   1.297       .  A
O689       Zr705   2.429       .  S
O689        C712   1.292       .  A
O690       Zr705   2.431       .  S
O690        C713   1.291       .  A
O691       Zr704   2.448       .  S
O691        C714   1.295       .  A
O692       Zr706   2.442       .  S
O692        C715   1.294       .  A
O693       Zr706   2.450       .  S
O693        C716   1.295       .  A
O694       Zr704   2.433       .  S
O694        C715   1.293       .  A
O695       Zr705   2.429       .  S
O695        C716   1.291       .  A
O696       Zr702   2.435       .  S
O696        C711   1.292       .  A
O697       Zr703   2.419       .  S
O697        C714   1.289       .  A
O698       Zr703   2.426       .  S
O698        C713   1.291       .  A
O699       Zr702   2.441       .  S
O699        C712   1.293       .  A
O700       Zr706   2.445       .  S
O700        C709   1.294       .  A
O701       Zr706   2.447       .  S
O701        C710   1.294       .  A
Zr702       O708   2.339       .  S
Zr702       O720   2.340       .  S
Zr703       O707   2.334       .  S
Zr703       O718   2.329       .  S
Zr704       O708   2.344       .  S
Zr704       O718   2.351       .  S
Zr705       O707   2.339       .  S
Zr705       O720   2.340       .  S
Zr706       O707   2.342       .  S
Zr706       O708   2.349       .  S
Zr706       O720   2.338       .  S
Zr706       O718   2.341       .  S
C709       C1668   1.489       .  S
C710        C876   1.488       .  S
C711       C1620   1.494       .  S
C712       C1849   1.482       .  S
C713       C2449   1.475       .  S
C714       C2305   1.478       .  S
C715       C2268   1.482       .  S
C716        C913   1.480       .  S
H717        O718   0.966       .  S
H719        O720   0.967       .  S
C721        C722   1.405       .  A
C721        C726   1.405       .  A
C722        C723   1.393       .  A
C722        H735   1.083       .  S
C723        C724   1.402       .  A
C723        H736   1.084       .  S
C724        C725   1.411       .  A
C724        C727   1.488       .  S
C725        C726   1.402       .  A
C725        H737   1.080       .  S
C726        H738   1.083       .  S
C727        C728   1.347       .  D
C727        H739   1.085       .  S
C728        C729   1.487       .  S
C728        H740   1.083       .  S
C729        C730   1.403       .  A
C729        C734   1.408       .  A
C730        C731   1.399       .  A
C730        H741   1.083       .  S
C731        C732   1.408       .  A
C731        H742   1.083       .  S
C732        C733   1.405       .  A
C733        C734   1.396       .  A
C733        H743   1.083       .  S
C734        H744   1.081       .  S
C745        C746   1.406       .  A
C745        C750   1.406       .  A
C746        C747   1.393       .  A
C746        H759   1.083       .  S
C747        C748   1.400       .  A
C747        H760   1.084       .  S
C748        C749   1.410       .  A
C748        C751   1.486       .  S
C749        C750   1.405       .  A
C749        H761   1.082       .  S
C750        H762   1.083       .  S
C751        C752   1.347       .  D
C751        H763   1.085       .  S
C752        C753   1.490       .  S
C752        H764   1.085       .  S
C753        C754   1.404       .  A
C753        C758   1.409       .  A
C754        C755   1.401       .  A
C754        H765   1.083       .  S
C755        C756   1.408       .  A
C755        H766   1.083       .  S
C756        C757   1.406       .  A
C757        C758   1.398       .  A
C757        H767   1.083       .  S
C758        H768   1.081       .  S
C769        C770   1.408       .  A
C769        C774   1.409       .  A
C770        C771   1.389       .  A
C770        H783   1.083       .  S
C771        C772   1.399       .  A
C771        H784   1.084       .  S
C772        C773   1.410       .  A
C772        C775   1.486       .  S
C773        C774   1.408       .  A
C773        H785   1.082       .  S
C774        H786   1.083       .  S
C775        C776   1.347       .  D
C775        H787   1.084       .  S
C776        C777   1.494       .  S
C776        H788   1.085       .  S
C777        C778   1.404       .  A
C777        C782   1.410       .  A
C778        C779   1.402       .  A
C778        H789   1.083       .  S
C779        C780   1.407       .  A
C779        H790   1.083       .  S
C780        C781   1.406       .  A
C781        C782   1.397       .  A
C781        H791   1.083       .  S
C782        H792   1.081       .  S
C793        C794   1.408       .  A
C793        C798   1.406       .  A
C794        C795   1.399       .  A
C794        H807   1.083       .  S
C795        C796   1.402       .  A
C795        H808   1.083       .  S
C796        C797   1.408       .  A
C796        C799   1.487       .  S
C797        C798   1.398       .  A
C797        H809   1.082       .  S
C798        H810   1.083       .  S
C799        C800   1.346       .  D
C799        H811   1.084       .  S
C800        C801   1.490       .  S
C800        H812   1.087       .  S
C801        C802   1.401       .  A
C801        C806   1.412       .  A
C802        C803   1.392       .  A
C802        H813   1.084       .  S
C803        C804   1.406       .  A
C803        H814   1.083       .  S
C804        C805   1.406       .  A
C805        C806   1.407       .  A
C805        H815   1.083       .  S
C806        H816   1.081       .  S
C817        C818   1.403       .  A
C817        C822   1.407       .  A
C818        C819   1.392       .  A
C818        H831   1.083       .  S
C819        C820   1.403       .  A
C819        H832   1.084       .  S
C820        C821   1.409       .  A
C820        C823   1.485       .  S
C821        C822   1.401       .  A
C821        H833   1.080       .  S
C822        H834   1.083       .  S
C823        C824   1.347       .  D
C823        H835   1.086       .  S
C824        C825   1.485       .  S
C824        H836   1.083       .  S
C825        C826   1.404       .  A
C825        C830   1.406       .  A
C826        C827   1.402       .  A
C826        H837   1.083       .  S
C827        C828   1.407       .  A
C827        H838   1.083       .  S
C828        C829   1.405       .  A
C829        C830   1.390       .  A
C829        H839   1.083       .  S
C830        H840   1.082       .  S
C841        C842   1.406       .  A
C841        C846   1.403       .  A
C842        C843   1.397       .  A
C842        H855   1.083       .  S
C843        C844   1.401       .  A
C843        H856   1.083       .  S
C844        C845   1.408       .  A
C844        C847   1.482       .  S
C845        C846   1.397       .  A
C845        H857   1.082       .  S
C846        H858   1.083       .  S
C847        C848   1.345       .  D
C847        H859   1.085       .  S
C848        C849   1.482       .  S
C848        H860   1.086       .  S
C849        C850   1.400       .  A
C849        C854   1.409       .  A
C850        C851   1.392       .  A
C850        H861   1.084       .  S
C851        C852   1.405       .  A
C851        H862   1.083       .  S
C852        C853   1.404       .  A
C853        C854   1.401       .  A
C853        H863   1.083       .  S
C854        H864   1.081       .  S
C865        C866   1.404       .  A
C865        C870   1.403       .  A
C866        C867   1.395       .  A
C866        H879   1.083       .  S
C867        C868   1.403       .  A
C867        H880   1.084       .  S
C868        C869   1.412       .  A
C868        C871   1.491       .  S
C869        C870   1.402       .  A
C869        H881   1.079       .  S
C870        H882   1.083       .  S
C871        C872   1.348       .  D
C871        H883   1.086       .  S
C872        C873   1.486       .  S
C872        H884   1.083       .  S
C873        C874   1.402       .  A
C873        C878   1.407       .  A
C874        C875   1.399       .  A
C874        H885   1.083       .  S
C875        C876   1.408       .  A
C875        H886   1.083       .  S
C876        C877   1.407       .  A
C877        C878   1.399       .  A
C877        H887   1.083       .  S
C878        H888   1.082       .  S
C889        C890   1.404       .  A
C889        C894   1.406       .  A
C890        C891   1.391       .  A
C890        H903   1.083       .  S
C891        C892   1.400       .  A
C891        H904   1.084       .  S
C892        C893   1.407       .  A
C892        C895   1.475       .  S
C893        C894   1.398       .  A
C893        H905   1.082       .  S
C894        H906   1.083       .  S
C895        C896   1.342       .  D
C895        H907   1.086       .  S
C896        C897   1.477       .  S
C896        H908   1.086       .  S
C897        C898   1.401       .  A
C897        C902   1.407       .  A
C898        C899   1.396       .  A
C898        H909   1.083       .  S
C899        C900   1.405       .  A
C899        H910   1.083       .  S
C900        C901   1.402       .  A
C901        C902   1.393       .  A
C901        H911   1.083       .  S
C902        H912   1.082       .  S
C913        C914   1.407       .  A
C913        C918   1.404       .  A
C914        C915   1.399       .  A
C914        H927   1.083       .  S
C915        C916   1.402       .  A
C915        H928   1.083       .  S
C916        C917   1.408       .  A
C916        C919   1.485       .  S
C917        C918   1.396       .  A
C917        H929   1.082       .  S
C918        H930   1.083       .  S
C919        C920   1.345       .  D
C919        H931   1.086       .  S
C920        C921   1.480       .  S
C920        H932   1.086       .  S
C921        C922   1.399       .  A
C921        C926   1.409       .  A
C922        C923   1.391       .  A
C922        H933   1.084       .  S
C923        C924   1.405       .  A
C923        H934   1.083       .  S
C924        C925   1.406       .  A
C925        C926   1.403       .  A
C925        H935   1.083       .  S
C926        H936   1.082       .  S
C937        C938   1.404       .  A
C937        C942   1.404       .  A
C938        C939   1.391       .  A
C938        H951   1.083       .  S
C939        C940   1.400       .  A
C939        H952   1.084       .  S
C940        C941   1.411       .  A
C940        C943   1.483       .  S
C941        C942   1.403       .  A
C941        H953   1.081       .  S
C942        H954   1.083       .  S
C943        C944   1.344       .  D
C943        H955   1.087       .  S
C944        C945   1.482       .  S
C944        H956   1.085       .  S
C945        C946   1.400       .  A
C945        C950   1.408       .  A
C946        C947   1.396       .  A
C946        H957   1.083       .  S
C947        C948   1.407       .  A
C947        H958   1.083       .  S
C948        C949   1.406       .  A
C949        C950   1.398       .  A
C949        H959   1.083       .  S
C950        H960   1.083       .  S
C961        C962   1.404   1_455  A
C961        C966   1.405       .  A
C962        C963   1.394       .  A
C962        H975   1.083       .  S
C963        C964   1.403       .  A
C963        H976   1.084       .  S
C964        C965   1.409   1_655  A
C964        C967   1.488       .  S
C965        C966   1.402       .  A
C965        H977   1.081       .  S
C966        H978   1.083       .  S
C967        C968   1.349       .  D
C967        H979   1.085       .  S
C968        C969   1.490       .  S
C968        H980   1.084       .  S
C969        C970   1.406       .  A
C969        C974   1.407       .  A
C970        C971   1.402       .  A
C970        H981   1.083       .  S
C971        C972   1.406       .  A
C971        H982   1.083       .  S
C972        C973   1.404       .  A
C973        C974   1.393       .  A
C973        H983   1.083       .  S
C974        H984   1.081       .  S
C985        C986   1.408       .  A
C985        C990   1.406       .  A
C986        C987   1.388       .  A
C986        H999   1.083       .  S
C987        C988   1.397       .  A
C987       H1000   1.084       .  S
C988        C989   1.408       .  A
C988        C991   1.475       .  S
C989        C990   1.403       .  A
C989       H1001   1.082       .  S
C990       H1002   1.083       .  S
C991        C992   1.342       .  D
C991       H1003   1.086       .  S
C992        C993   1.481       .  S
C992       H1004   1.086       .  S
C993        C994   1.401   1_655  A
C993        C998   1.408       .  A
C994        C995   1.398       .  A
C994       H1005   1.083       .  S
C995        C996   1.407       .  A
C995       H1006   1.083       .  S
C996        C997   1.404   1_455  A
C997        C998   1.393       .  A
C997       H1007   1.083       .  S
C998       H1008   1.082       .  S
C1009      C1010   1.406       .  A
C1009      C1014   1.404       .  A
C1010      C1011   1.394       .  A
C1010      H1023   1.083       .  S
C1011      C1012   1.401       .  A
C1011      H1024   1.084       .  S
C1012      C1013   1.412       .  A
C1012      C1015   1.490       .  S
C1013      C1014   1.405       .  A
C1013      H1025   1.081       .  S
C1014      H1026   1.083       .  S
C1015      C1016   1.347       .  D
C1015      H1027   1.086       .  S
C1016      C1017   1.487       .  S
C1016      H1028   1.084       .  S
C1017      C1018   1.402       .  A
C1017      C1022   1.409       .  A
C1018      C1019   1.397       .  A
C1018      H1029   1.083       .  S
C1019      C1020   1.405       .  A
C1019      H1030   1.083       .  S
C1020      C1021   1.406       .  A
C1021      C1022   1.401       .  A
C1021      H1031   1.083       .  S
C1022      H1032   1.082       .  S
C1033      C1034   1.408       .  A
C1033      C1038   1.405       .  A
C1034      C1035   1.398       .  A
C1034      H1047   1.083       .  S
C1035      C1036   1.400       .  A
C1035      H1048   1.083       .  S
C1036      C1037   1.408       .  A
C1036      C1039   1.484       .  S
C1037      C1038   1.397       .  A
C1037      H1049   1.082       .  S
C1038      H1050   1.083       .  S
C1039      C1040   1.344       .  D
C1039      H1051   1.084       .  S
C1040      C1041   1.486       .  S
C1040      H1052   1.087       .  S
C1041      C1042   1.400       .  A
C1041      C1046   1.411       .  A
C1042      C1043   1.390       .  A
C1042      H1053   1.084       .  S
C1043      C1044   1.405       .  A
C1043      H1054   1.083       .  S
C1044      C1045   1.407       .  A
C1045      C1046   1.406       .  A
C1045      H1055   1.083       .  S
C1046      H1056   1.081       .  S
C1057      C1058   1.406       .  A
C1057      C1062   1.406       .  A
C1058      C1059   1.402       .  A
C1058      H1071   1.083       .  S
C1059      C1060   1.404       .  A
C1059      H1072   1.083       .  S
C1060      C1061   1.407       .  A
C1060      C1063   1.490       .  S
C1061      C1062   1.397       .  A
C1061      H1073   1.082       .  S
C1062      H1074   1.083       .  S
C1063      C1064   1.349       .  D
C1063      H1075   1.084       .  S
C1064      C1065   1.490       .  S
C1064      H1076   1.085       .  S
C1065      C1066   1.402       .  A
C1065      C1070   1.410       .  A
C1066      C1067   1.393       .  A
C1066      H1077   1.084       .  S
C1067      C1068   1.407       .  A
C1067      H1078   1.083       .  S
C1068      C1069   1.406       .  A
C1069      C1070   1.403       .  A
C1069      H1079   1.083       .  S
C1070      H1080   1.080       .  S
C1081      C1082   1.406       .  A
C1081      C1086   1.405       .  A
C1082      C1083   1.392       .  A
C1082      H1095   1.083       .  S
C1083      C1084   1.401       .  A
C1083      H1096   1.084       .  S
C1084      C1085   1.412       .  A
C1084      C1087   1.491       .  S
C1085      C1086   1.405       .  A
C1085      H1097   1.080       .  S
C1086      H1098   1.083       .  S
C1087      C1088   1.347       .  D
C1087      H1099   1.087       .  S
C1088      C1089   1.487       .  S
C1088      H1100   1.083       .  S
C1089      C1090   1.402       .  A
C1089      C1094   1.407       .  A
C1090      C1091   1.399       .  A
C1090      H1101   1.083       .  S
C1091      C1092   1.408       .  A
C1091      H1102   1.083       .  S
C1092      C1093   1.408       .  A
C1093      C1094   1.398       .  A
C1093      H1103   1.083       .  S
C1094      H1104   1.082       .  S
C1105      C1106   1.406       .  A
C1105      C1110   1.409       .  A
C1106      C1107   1.393       .  A
C1106      H1119   1.083       .  S
C1107      C1108   1.403       .  A
C1107      H1120   1.084       .  S
C1108      C1109   1.410       .  A
C1108      C1111   1.492       .  S
C1109      C1110   1.407       .  A
C1109      H1121   1.080       .  S
C1110      H1122   1.083       .  S
C1111      C1112   1.350       .  D
C1111      H1123   1.086       .  S
C1112      C1113   1.493       .  S
C1112      H1124   1.084       .  S
C1113      C1114   1.405       .  A
C1113      C1118   1.407       .  A
C1114      C1115   1.404       .  A
C1114      H1125   1.083       .  S
C1115      C1116   1.409       .  A
C1115      H1126   1.083       .  S
C1116      C1117   1.404       .  A
C1117      C1118   1.394       .  A
C1117      H1127   1.083       .  S
C1118      H1128   1.082       .  S
C1129      C1130   1.406       .  A
C1129      C1134   1.403       .  A
C1130      C1131   1.398       .  A
C1130      H1143   1.083       .  S
C1131      C1132   1.403       .  A
C1131      H1144   1.083       .  S
C1132      C1133   1.408       .  A
C1132      C1135   1.486       .  S
C1133      C1134   1.396       .  A
C1133      H1145   1.082       .  S
C1134      H1146   1.083       .  S
C1135      C1136   1.347       .  D
C1135      H1147   1.084       .  S
C1136      C1137   1.487       .  S
C1136      H1148   1.085       .  S
C1137      C1138   1.402       .  A
C1137      C1142   1.409       .  A
C1138      C1139   1.393       .  A
C1138      H1149   1.084       .  S
C1139      C1140   1.406       .  A
C1139      H1150   1.083       .  S
C1140      C1141   1.407       .  A
C1141      C1142   1.401       .  A
C1141      H1151   1.083       .  S
C1142      H1152   1.080       .  S
C1153      C1154   1.406       .  A
C1153      C1158   1.409       .  A
C1154      C1155   1.394       .  A
C1154      H1167   1.083       .  S
C1155      C1156   1.402       .  A
C1155      H1168   1.083       .  S
C1156      C1157   1.410       .  A
C1156      C1159   1.492       .  S
C1157      C1158   1.406       .  A
C1157      H1169   1.081       .  S
C1158      H1170   1.083       .  S
C1159      C1160   1.349       .  D
C1159      H1171   1.086       .  S
C1160      C1161   1.490       .  S
C1160      H1172   1.084       .  S
C1161      C1162   1.403       .  A
C1161      C1166   1.407       .  A
C1162      C1163   1.402       .  A
C1162      H1173   1.083       .  S
C1163      C1164   1.408       .  A
C1163      H1174   1.083       .  S
C1164      C1165   1.407       .  A
C1165      C1166   1.398       .  A
C1165      H1175   1.083       .  S
C1166      H1176   1.082       .  S
C1177      C1178   1.410       .  A
C1177      C1182   1.406       .  A
C1178      C1179   1.399       .  A
C1178      H1191   1.083       .  S
C1179      C1180   1.401       .  A
C1179      H1192   1.083       .  S
C1180      C1181   1.408       .  A
C1180      C1183   1.488       .  S
C1181      C1182   1.400       .  A
C1181      H1193   1.083       .  S
C1182      H1194   1.083       .  S
C1183      C1184   1.347       .  D
C1183      H1195   1.083       .  S
C1184      C1185   1.494       .  S
C1184      H1196   1.087       .  S
C1185      C1186   1.403       .  A
C1185      C1190   1.413       .  A
C1186      C1187   1.394       .  A
C1186      H1197   1.084       .  S
C1187      C1188   1.404       .  A
C1187      H1198   1.083       .  S
C1188      C1189   1.407       .  A
C1189      C1190   1.408       .  A
C1189      H1199   1.083       .  S
C1190      H1200   1.080       .  S
C1201      C1202   1.406       .  A
C1201      C1206   1.406       .  A
C1202      C1203   1.401       .  A
C1202      H1215   1.083       .  S
C1203      C1204   1.404       .  A
C1203      H1216   1.083       .  S
C1204      C1205   1.406       .  A
C1204      C1207   1.487       .  S
C1205      C1206   1.395       .  A
C1205      H1217   1.082       .  S
C1206      H1218   1.083       .  S
C1207      C1208   1.349       .  D
C1207      H1219   1.084       .  S
C1208      C1209   1.490       .  S
C1208      H1220   1.086       .  S
C1209      C1210   1.405       .  A
C1209      C1214   1.409       .  A
C1210      C1211   1.397       .  A
C1210      H1221   1.084       .  S
C1211      C1212   1.405       .  A
C1211      H1222   1.083       .  S
C1212      C1213   1.406       .  A
C1213      C1214   1.402       .  A
C1213      H1223   1.083       .  S
C1214      H1224   1.081       .  S
C1225      C1226   1.407       .  A
C1225      C1230   1.405       .  A
C1226      C1227   1.399       .  A
C1226      H1239   1.083       .  S
C1227      C1228   1.402       .  A
C1227      H1240   1.083       .  S
C1228      C1229   1.407       .  A
C1228      C1231   1.485       .  S
C1229      C1230   1.396       .  A
C1229      H1241   1.082       .  S
C1230      H1242   1.083       .  S
C1231      C1232   1.347       .  D
C1231      H1243   1.083       .  S
C1232      C1233   1.488       .  S
C1232      H1244   1.086       .  S
C1233      C1234   1.402       .  A
C1233      C1238   1.411       .  A
C1234      C1235   1.393       .  A
C1234      H1245   1.084       .  S
C1235      C1236   1.407       .  A
C1235      H1246   1.083       .  S
C1236      C1237   1.404       .  A
C1237      C1238   1.402       .  A
C1237      H1247   1.083       .  S
C1238      H1248   1.079       .  S
C1249      C1250   1.404   1_455  A
C1249      C1254   1.407       .  A
C1250      C1251   1.392       .  A
C1250      H1263   1.083       .  S
C1251      C1252   1.401       .  A
C1251      H1264   1.084       .  S
C1252      C1253   1.409   1_655  A
C1252      C1255   1.486       .  S
C1253      C1254   1.404       .  A
C1253      H1265   1.081       .  S
C1254      H1266   1.083       .  S
C1255      C1256   1.347       .  D
C1255      H1267   1.086       .  S
C1256      C1257   1.488       .  S
C1256      H1268   1.085       .  S
C1257      C1258   1.401       .  A
C1257      C1262   1.409       .  A
C1258      C1259   1.400       .  A
C1258      H1269   1.084       .  S
C1259      C1260   1.411       .  A
C1259      H1270   1.083       .  S
C1260      C1261   1.404       .  A
C1261      C1262   1.399       .  A
C1261      H1271   1.083       .  S
C1262      H1272   1.082       .  S
C1273      C1274   1.408       .  A
C1273      C1278   1.404   1_455  A
C1274      C1275   1.403       .  A
C1274      H1287   1.083       .  S
C1275      C1276   1.403   1_455  A
C1275      H1288   1.083       .  S
C1276      C1277   1.407       .  A
C1276      C1279   1.488       .  S
C1277      C1278   1.392       .  A
C1277      H1289   1.082       .  S
C1278      H1290   1.083       .  S
C1279      C1280   1.347       .  D
C1279      H1291   1.084       .  S
C1280      C1281   1.485       .  S
C1280      H1292   1.086       .  S
C1281      C1282   1.401       .  A
C1281      C1286   1.409       .  A
C1282      C1283   1.389       .  A
C1282      H1293   1.084       .  S
C1283      C1284   1.404       .  A
C1283      H1294   1.083       .  S
C1284      C1285   1.409       .  A
C1285      C1286   1.405       .  A
C1285      H1295   1.083       .  S
C1286      H1296   1.081       .  S
C1297      C1298   1.406       .  A
C1297      C1302   1.408       .  A
C1298      C1299   1.389       .  A
C1298      H1311   1.083       .  S
C1299      C1300   1.399       .  A
C1299      H1312   1.084       .  S
C1300      C1301   1.410       .  A
C1300      C1303   1.484       .  S
C1301      C1302   1.408       .  A
C1301      H1313   1.082       .  S
C1302      H1314   1.083       .  S
C1303      C1304   1.346       .  D
C1303      H1315   1.086       .  S
C1304      C1305   1.489       .  S
C1304      H1316   1.085       .  S
C1305      C1306   1.403       .  A
C1305      C1310   1.408       .  A
C1306      C1307   1.402       .  A
C1306      H1317   1.083       .  S
C1307      C1308   1.408       .  A
C1307      H1318   1.083       .  S
C1308      C1309   1.406       .  A
C1309      C1310   1.394       .  A
C1309      H1319   1.083       .  S
C1310      H1320   1.082       .  S
C1321      C1322   1.406       .  A
C1321      C1326   1.409       .  A
C1322      C1323   1.394       .  A
C1322      H1335   1.083       .  S
C1323      C1324   1.403       .  A
C1323      H1336   1.084       .  S
C1324      C1325   1.411       .  A
C1324      C1327   1.493       .  S
C1325      C1326   1.406       .  A
C1325      H1337   1.080       .  S
C1326      H1338   1.083       .  S
C1327      C1328   1.350       .  D
C1327      H1339   1.085       .  S
C1328      C1329   1.494       .  S
C1328      H1340   1.083       .  S
C1329      C1330   1.406       .  A
C1329      C1334   1.408       .  A
C1330      C1331   1.404       .  A
C1330      H1341   1.083       .  S
C1331      C1332   1.406       .  A
C1331      H1342   1.083       .  S
C1332      C1333   1.407       .  A
C1333      C1334   1.396       .  A
C1333      H1343   1.083       .  S
C1334      H1344   1.081       .  S
C1345      C1346   1.407       .  A
C1345      C1350   1.408       .  A
C1346      C1347   1.408       .  A
C1346      H1359   1.083       .  S
C1347      C1348   1.408       .  A
C1347      H1360   1.083       .  S
C1348      C1349   1.405       .  A
C1348      C1351   1.494       .  S
C1349      C1350   1.394       .  A
C1349      H1361   1.082       .  S
C1350      H1362   1.083       .  S
C1351      C1352   1.353       .  D
C1351      H1363   1.083       .  S
C1352      C1353   1.495       .  S
C1352      H1364   1.086       .  S
C1353      C1354   1.406       .  A
C1353      C1358   1.409       .  A
C1354      C1355   1.398       .  A
C1354      H1365   1.084       .  S
C1355      C1356   1.406       .  A
C1355      H1366   1.083       .  S
C1356      C1357   1.408       .  A
C1357      C1358   1.403       .  A
C1357      H1367   1.083       .  S
C1358      H1368   1.080       .  S
C1369      C1370   1.405       .  A
C1369      C1374   1.406       .  A
C1370      C1371   1.391       .  A
C1370      H1383   1.083       .  S
C1371      C1372   1.401       .  A
C1371      H1384   1.084       .  S
C1372      C1373   1.408       .  A
C1372      C1375   1.481       .  S
C1373      C1374   1.400       .  A
C1373      H1385   1.081       .  S
C1374      H1386   1.083       .  S
C1375      C1376   1.346       .  D
C1375      H1387   1.085       .  S
C1376      C1377   1.485       .  S
C1376      H1388   1.085       .  S
C1377      C1378   1.403       .  A
C1377      C1382   1.408       .  A
C1378      C1379   1.400       .  A
C1378      H1389   1.083       .  S
C1379      C1380   1.406       .  A
C1379      H1390   1.083       .  S
C1380      C1381   1.403       .  A
C1381      C1382   1.394       .  A
C1381      H1391   1.083       .  S
C1382      H1392   1.082       .  S
C1393      C1394   1.405       .  A
C1393      C1398   1.409       .  A
C1394      C1395   1.394       .  A
C1394      H1407   1.083       .  S
C1395      C1396   1.403       .  A
C1395      H1408   1.084       .  S
C1396      C1397   1.409       .  A
C1396      C1399   1.490       .  S
C1397      C1398   1.404       .  A
C1397      H1409   1.080       .  S
C1398      H1410   1.083       .  S
C1399      C1400   1.349       .  D
C1399      H1411   1.084       .  S
C1400      C1401   1.493       .  S
C1400      H1412   1.084       .  S
C1401      C1402   1.405       .  A
C1401      C1406   1.409       .  A
C1402      C1403   1.402       .  A
C1402      H1413   1.083       .  S
C1403      C1404   1.407       .  A
C1403      H1414   1.083       .  S
C1404      C1405   1.405       .  A
C1405      C1406   1.396       .  A
C1405      H1415   1.083       .  S
C1406      H1416   1.081       .  S
C1417      C1418   1.403       .  A
C1417      C1422   1.408       .  A
C1418      C1419   1.394       .  A
C1418      H1431   1.083       .  S
C1419      C1420   1.404       .  A
C1419      H1432   1.083       .  S
C1420      C1421   1.408       .  A
C1420      C1423   1.487       .  S
C1421      C1422   1.400       .  A
C1421      H1433   1.080       .  S
C1422      H1434   1.083       .  S
C1423      C1424   1.349       .  D
C1423      H1435   1.086       .  S
C1424      C1425   1.485       .  S
C1424      H1436   1.083       .  S
C1425      C1426   1.405       .  A
C1425      C1430   1.405       .  A
C1426      C1427   1.403       .  A
C1426      H1437   1.083       .  S
C1427      C1428   1.405       .  A
C1427      H1438   1.083       .  S
C1428      C1429   1.407       .  A
C1429      C1430   1.392       .  A
C1429      H1439   1.083       .  S
C1430      H1440   1.082       .  S
C1441      C1442   1.407       .  A
C1441      C1446   1.405       .  A
C1442      C1443   1.402       .  A
C1442      H1455   1.083       .  S
C1443      C1444   1.405       .  A
C1443      H1456   1.083       .  S
C1444      C1445   1.407       .  A
C1444      C1447   1.490       .  S
C1445      C1446   1.396       .  A
C1445      H1457   1.082       .  S
C1446      H1458   1.083       .  S
C1447      C1448   1.350       .  D
C1447      H1459   1.084       .  S
C1448      C1449   1.491       .  S
C1448      H1460   1.085       .  S
C1449      C1450   1.404       .  A
C1449      C1454   1.409       .  A
C1450      C1451   1.396       .  A
C1450      H1461   1.084       .  S
C1451      C1452   1.406       .  A
C1451      H1462   1.083       .  S
C1452      C1453   1.407       .  A
C1453      C1454   1.403       .  A
C1453      H1463   1.083       .  S
C1454      H1464   1.080       .  S
C1465      C1466   1.408       .  A
C1465      C1470   1.404       .  A
C1466      C1467   1.404       .  A
C1466      H1479   1.083       .  S
C1467      C1468   1.405       .  A
C1467      H1480   1.083       .  S
C1468      C1469   1.406       .  A
C1468      C1471   1.489       .  S
C1469      C1470   1.392       .  A
C1469      H1481   1.081       .  S
C1470      H1482   1.083       .  S
C1471      C1472   1.350       .  D
C1471      H1483   1.084       .  S
C1472      C1473   1.487       .  S
C1472      H1484   1.085       .  S
C1473      C1474   1.404       .  A
C1473      C1478   1.408       .  A
C1474      C1475   1.394       .  A
C1474      H1485   1.084       .  S
C1475      C1476   1.404       .  A
C1475      H1486   1.083       .  S
C1476      C1477   1.408       .  A
C1477      C1478   1.402       .  A
C1477      H1487   1.083       .  S
C1478      H1488   1.080       .  S
C1489      C1490   1.406       .  A
C1489      C1494   1.405       .  A
C1490      C1491   1.394       .  A
C1490      H1503   1.083       .  S
C1491      C1492   1.403       .  A
C1491      H1504   1.084       .  S
C1492      C1493   1.410       .  A
C1492      C1495   1.489       .  S
C1493      C1494   1.402       .  A
C1493      H1505   1.079       .  S
C1494      H1506   1.083       .  S
C1495      C1496   1.347       .  D
C1495      H1507   1.086       .  S
C1496      C1497   1.486       .  S
C1496      H1508   1.083       .  S
C1497      C1498   1.402       .  A
C1497      C1502   1.408       .  A
C1498      C1499   1.399       .  A
C1498      H1509   1.084       .  S
C1499      C1500   1.411       .  A
C1499      H1510   1.083       .  S
C1500      C1501   1.404       .  A
C1501      C1502   1.397       .  A
C1501      H1511   1.083       .  S
C1502      H1512   1.082       .  S
C1513      C1514   1.407       .  A
C1513      C1518   1.404       .  A
C1514      C1515   1.401       .  A
C1514      H1527   1.083       .  S
C1515      C1516   1.404       .  A
C1515      H1528   1.083       .  S
C1516      C1517   1.407       .  A
C1516      C1519   1.486       .  S
C1517      C1518   1.391       .  A
C1517      H1529   1.081       .  S
C1518      H1530   1.083       .  S
C1519      C1520   1.347       .  D
C1519      H1531   1.084       .  S
C1520      C1521   1.483       .  S
C1520      H1532   1.084       .  S
C1521      C1522   1.402       .  A
C1521      C1526   1.408       .  A
C1522      C1523   1.392       .  A
C1522      H1533   1.084       .  S
C1523      C1524   1.404       .  A
C1523      H1534   1.083       .  S
C1524      C1525   1.406       .  A
C1525      C1526   1.400       .  A
C1525      H1535   1.083       .  S
C1526      H1536   1.081       .  S
C1537      C1538   1.404       .  A
C1537      C1542   1.406       .  A
C1538      C1539   1.394       .  A
C1538      H1551   1.083       .  S
C1539      C1540   1.404       .  A
C1539      H1552   1.084       .  S
C1540      C1541   1.408       .  A
C1540      C1543   1.484       .  S
C1541      C1542   1.397       .  A
C1541      H1553   1.079       .  S
C1542      H1554   1.083       .  S
C1543      C1544   1.347       .  D
C1543      H1555   1.086       .  S
C1544      C1545   1.481       .  S
C1544      H1556   1.083       .  S
C1545      C1546   1.404       .  A
C1545      C1550   1.405       .  A
C1546      C1547   1.400       .  A
C1546      H1557   1.083       .  S
C1547      C1548   1.406       .  A
C1547      H1558   1.083       .  S
C1548      C1549   1.405       .  A
C1549      C1550   1.390       .  A
C1549      H1559   1.083       .  S
C1550      H1560   1.082       .  S
C1561      C1562   1.406       .  A
C1561      C1566   1.405       .  A
C1562      C1563   1.393       .  A
C1562      H1575   1.083       .  S
C1563      C1564   1.403       .  A
C1563      H1576   1.084       .  S
C1564      C1565   1.408       .  A
C1564      C1567   1.484       .  S
C1565      C1566   1.397       .  A
C1565      H1577   1.079       .  S
C1566      H1578   1.083       .  S
C1567      C1568   1.348       .  D
C1567      H1579   1.086       .  S
C1568      C1569   1.480       .  S
C1568      H1580   1.082       .  S
C1569      C1570   1.402       .  A
C1569      C1574   1.405       .  A
C1570      C1571   1.399       .  A
C1570      H1581   1.083       .  S
C1571      C1572   1.407       .  A
C1571      H1582   1.083       .  S
C1572      C1573   1.403       .  A
C1573      C1574   1.392       .  A
C1573      H1583   1.083       .  S
C1574      H1584   1.082       .  S
C1585      C1586   1.407       .  A
C1585      C1590   1.408       .  A
C1586      C1587   1.398       .  A
C1586      H1599   1.083       .  S
C1587      C1588   1.405       .  A
C1587      H1600   1.084       .  S
C1588      C1589   1.408       .  A
C1588      C1591   1.492       .  S
C1589      C1590   1.402       .  A
C1589      H1601   1.081       .  S
C1590      H1602   1.083       .  S
C1591      C1592   1.352       .  D
C1591      H1603   1.085       .  S
C1592      C1593   1.494       .  S
C1592      H1604   1.084       .  S
C1593      C1594   1.407       .  A
C1593      C1598   1.407       .  A
C1594      C1595   1.404       .  A
C1594      H1605   1.083       .  S
C1595      C1596   1.406       .  A
C1595      H1606   1.083       .  S
C1596      C1597   1.404       .  A
C1597      C1598   1.396       .  A
C1597      H1607   1.083       .  S
C1598      H1608   1.081       .  S
C1609      C1610   1.407       .  A
C1609      C1614   1.407       .  A
C1610      C1611   1.405       .  A
C1610      H1623   1.083       .  S
C1611      C1612   1.407       .  A
C1611      H1624   1.083       .  S
C1612      C1613   1.408       .  A
C1612      C1615   1.498       .  S
C1613      C1614   1.397       .  A
C1613      H1625   1.081       .  S
C1614      H1626   1.083       .  S
C1615      C1616   1.353       .  D
C1615      H1627   1.083       .  S
C1616      C1617   1.498       .  S
C1616      H1628   1.084       .  S
C1617      C1618   1.404       .  A
C1617      C1622   1.411       .  A
C1618      C1619   1.396       .  A
C1618      H1629   1.084       .  S
C1619      C1620   1.407       .  A
C1619      H1630   1.083       .  S
C1620      C1621   1.408       .  A
C1621      C1622   1.408       .  A
C1621      H1631   1.083       .  S
C1622      H1632   1.080       .  S
C1633      C1634   1.407       .  A
C1633      C1638   1.407       .  A
C1634      C1635   1.404       .  A
C1634      H1647   1.083       .  S
C1635      C1636   1.406       .  A
C1635      H1648   1.083       .  S
C1636      C1637   1.404       .  A
C1636      C1639   1.486       .  S
C1637      C1638   1.390       .  A
C1637      H1649   1.082       .  S
C1638      H1650   1.083       .  S
C1639      C1640   1.350       .  D
C1639      H1651   1.083       .  S
C1640      C1641   1.488       .  S
C1640      H1652   1.086       .  S
C1641      C1642   1.405       .  A
C1641      C1646   1.409       .  A
C1642      C1643   1.396       .  A
C1642      H1653   1.084       .  S
C1643      C1644   1.403       .  A
C1643      H1654   1.083       .  S
C1644      C1645   1.405       .  A
C1645      C1646   1.399       .  A
C1645      H1655   1.083       .  S
C1646      H1656   1.079       .  S
C1657      C1658   1.404       .  A
C1657      C1662   1.405       .  A
C1658      C1659   1.394       .  A
C1658      H1671   1.083       .  S
C1659      C1660   1.402       .  A
C1659      H1672   1.083       .  S
C1660      C1661   1.413       .  A
C1660      C1663   1.495       .  S
C1661      C1662   1.408       .  A
C1661      H1673   1.080       .  S
C1662      H1674   1.083       .  S
C1663      C1664   1.348       .  D
C1663      H1675   1.086       .  S
C1664      C1665   1.491       .  S
C1664      H1676   1.084       .  S
C1665      C1666   1.403       .  A
C1665      C1670   1.408       .  A
C1666      C1667   1.401       .  A
C1666      H1677   1.083       .  S
C1667      C1668   1.408       .  A
C1667      H1678   1.083       .  S
C1668      C1669   1.408       .  A
C1669      C1670   1.401       .  A
C1669      H1679   1.083       .  S
C1670      H1680   1.082       .  S
C1681      C1682   1.405       .  A
C1681      C1686   1.410       .  A
C1682      C1683   1.394       .  A
C1682      H1695   1.083       .  S
C1683      C1684   1.404       .  A
C1683      H1696   1.084       .  S
C1684      C1685   1.409       .  A
C1684      C1687   1.491       .  S
C1685      C1686   1.406       .  A
C1685      H1697   1.080       .  S
C1686      H1698   1.083       .  S
C1687      C1688   1.350       .  D
C1687      H1699   1.086       .  S
C1688      C1689   1.492       .  S
C1688      H1700   1.084       .  S
C1689      C1690   1.406       .  A
C1689      C1694   1.407       .  A
C1690      C1691   1.405       .  A
C1690      H1701   1.083       .  S
C1691      C1692   1.408       .  A
C1691      H1702   1.083       .  S
C1692      C1693   1.405       .  A
C1693      C1694   1.394       .  A
C1693      H1703   1.083       .  S
C1694      H1704   1.082       .  S
C1705      C1706   1.408       .  A
C1705      C1710   1.405       .  A
C1706      C1707   1.398       .  A
C1706      H1719   1.083       .  S
C1707      C1708   1.404       .  A
C1707      H1720   1.084       .  S
C1708      C1709   1.412       .  A
C1708      C1711   1.496       .  S
C1709      C1710   1.403       .  A
C1709      H1721   1.079       .  S
C1710      H1722   1.083       .  S
C1711      C1712   1.350       .  D
C1711      H1723   1.086       .  S
C1712      C1713   1.490       .  S
C1712      H1724   1.082       .  S
C1713      C1714   1.404       .  A
C1713      C1718   1.407       .  A
C1714      C1715   1.400       .  A
C1714      H1725   1.083       .  S
C1715      C1716   1.406       .  A
C1715      H1726   1.083       .  S
C1716      C1717   1.408       .  A
C1717      C1718   1.398       .  A
C1717      H1727   1.083       .  S
C1718      H1728   1.082       .  S
C1729      C1730   1.406       .  A
C1729      C1734   1.405       .  A
C1730      C1731   1.400       .  A
C1730      H1743   1.083       .  S
C1731      C1732   1.404       .  A
C1731      H1744   1.083       .  S
C1732      C1733   1.409       .  A
C1732      C1735   1.491       .  S
C1733      C1734   1.396       .  A
C1733      H1745   1.081       .  S
C1734      H1746   1.083       .  S
C1735      C1736   1.347       .  D
C1735      H1747   1.084       .  S
C1736      C1737   1.487       .  S
C1736      H1748   1.084       .  S
C1737      C1738   1.401       .  A
C1737      C1742   1.410       .  A
C1738      C1739   1.391       .  A
C1738      H1749   1.084       .  S
C1739      C1740   1.406       .  A
C1739      H1750   1.083       .  S
C1740      C1741   1.407       .  A
C1741      C1742   1.404       .  A
C1741      H1751   1.083       .  S
C1742      H1752   1.081       .  S
C1753      C1754   1.405       .  A
C1753      C1758   1.408       .  A
C1754      C1755   1.393       .  A
C1754      H1767   1.083       .  S
C1755      C1756   1.403       .  A
C1755      H1768   1.084       .  S
C1756      C1757   1.411       .  A
C1756      C1759   1.491       .  S
C1757      C1758   1.407       .  A
C1757      H1769   1.081       .  S
C1758      H1770   1.083       .  S
C1759      C1760   1.348       .  D
C1759      H1771   1.087       .  S
C1760      C1761   1.490       .  S
C1760      H1772   1.084       .  S
C1761      C1762   1.403       .  A
C1761      C1766   1.407       .  A
C1762      C1763   1.403       .  A
C1762      H1773   1.083       .  S
C1763      C1764   1.409       .  A
C1763      H1774   1.083       .  S
C1764      C1765   1.406       .  A
C1765      C1766   1.397       .  A
C1765      H1775   1.083       .  S
C1766      H1776   1.083       .  S
C1777      C1778   1.406       .  A
C1777      C1782   1.402       .  A
C1778      C1779   1.398       .  A
C1778      H1791   1.083       .  S
C1779      C1780   1.402       .  A
C1779      H1792   1.083       .  S
C1780      C1781   1.409       .  A
C1780      C1783   1.486       .  S
C1781      C1782   1.395       .  A
C1781      H1793   1.082       .  S
C1782      H1794   1.083       .  S
C1783      C1784   1.346       .  D
C1783      H1795   1.084       .  S
C1784      C1785   1.485       .  S
C1784      H1796   1.085       .  S
C1785      C1786   1.402       .  A
C1785      C1790   1.409       .  A
C1786      C1787   1.392       .  A
C1786      H1797   1.084       .  S
C1787      C1788   1.404       .  A
C1787      H1798   1.083       .  S
C1788      C1789   1.408       .  A
C1789      C1790   1.402       .  A
C1789      H1799   1.083       .  S
C1790      H1800   1.080       .  S
C1801      C1802   1.406       .  A
C1801      C1806   1.405       .  A
C1802      C1803   1.394       .  A
C1802      H1815   1.083       .  S
C1803      C1804   1.403       .  A
C1803      H1816   1.084       .  S
C1804      C1805   1.409       .  A
C1804      C1807   1.486       .  S
C1805      C1806   1.399       .  A
C1805      H1817   1.080       .  S
C1806      H1818   1.083       .  S
C1807      C1808   1.347       .  D
C1807      H1819   1.085       .  S
C1808      C1809   1.485       .  S
C1808      H1820   1.084       .  S
C1809      C1810   1.403       .  A
C1809      C1814   1.408       .  A
C1810      C1811   1.399       .  A
C1810      H1821   1.083       .  S
C1811      C1812   1.408       .  A
C1811      H1822   1.083       .  S
C1812      C1813   1.404       .  A
C1813      C1814   1.395       .  A
C1813      H1823   1.083       .  S
C1814      H1824   1.081       .  S
C1825      C1826   1.407       .  A
C1825      C1830   1.406       .  A
C1826      C1827   1.399       .  A
C1826      H1839   1.083       .  S
C1827      C1828   1.402       .  A
C1827      H1840   1.083       .  S
C1828      C1829   1.406       .  A
C1828      C1831   1.482       .  S
C1829      C1830   1.393       .  A
C1829      H1841   1.082       .  S
C1830      H1842   1.083       .  S
C1831      C1832   1.346       .  D
C1831      H1843   1.084       .  S
C1832      C1833   1.484       .  S
C1832      H1844   1.086       .  S
C1833      C1834   1.403       .  A
C1833      C1838   1.410       .  A
C1834      C1835   1.393       .  A
C1834      H1845   1.084       .  S
C1835      C1836   1.403       .  A
C1835      H1846   1.083       .  S
C1836      C1837   1.404       .  A
C1837      C1838   1.400       .  A
C1837      H1847   1.083       .  S
C1838      H1848   1.080       .  S
C1849      C1850   1.405       .  A
C1849      C1854   1.407       .  A
C1850      C1851   1.392       .  A
C1850      H1863   1.083       .  S
C1851      C1852   1.403       .  A
C1851      H1864   1.084       .  S
C1852      C1853   1.409       .  A
C1852      C1855   1.486       .  S
C1853      C1854   1.400       .  A
C1853      H1865   1.080       .  S
C1854      H1866   1.083       .  S
C1855      C1856   1.348       .  D
C1855      H1867   1.085       .  S
C1856      C1857   1.485       .  S
C1856      H1868   1.083       .  S
C1857      C1858   1.404       .  A
C1857      C1862   1.407       .  A
C1858      C1859   1.400       .  A
C1858      H1869   1.083       .  S
C1859      C1860   1.406       .  A
C1859      H1870   1.083       .  S
C1860      C1861   1.404       .  A
C1861      C1862   1.394       .  A
C1861      H1871   1.083       .  S
C1862      H1872   1.082       .  S
C1873      C1874   1.408       .  A
C1873      C1878   1.408       .  A
C1874      C1875   1.398       .  A
C1874      H1887   1.083       .  S
C1875      C1876   1.401       .  A
C1875      H1888   1.083       .  S
C1876      C1877   1.408       .  A
C1876      C1879   1.487       .  S
C1877      C1878   1.401       .  A
C1877      H1889   1.083       .  S
C1878      H1890   1.083       .  S
C1879      C1880   1.346       .  D
C1879      H1891   1.084       .  S
C1880      C1881   1.491       .  S
C1880      H1892   1.087       .  S
C1881      C1882   1.401       .  A
C1881      C1886   1.413       .  A
C1882      C1883   1.392       .  A
C1882      H1893   1.084       .  S
C1883      C1884   1.404       .  A
C1883      H1894   1.083       .  S
C1884      C1885   1.405       .  A
C1885      C1886   1.407       .  A
C1885      H1895   1.083       .  S
C1886      H1896   1.080       .  S
C1897      C1898   1.407       .  A
C1897      C1902   1.406       .  A
C1898      C1899   1.402   1_455  A
C1898      H1911   1.083       .  S
C1899      C1900   1.404       .  A
C1899      H1912   1.083       .  S
C1900      C1901   1.408   1_655  A
C1900      C1903   1.489       .  S
C1901      C1902   1.394       .  A
C1901      H1913   1.082       .  S
C1902      H1914   1.083       .  S
C1903      C1904   1.347       .  D
C1903      H1915   1.084       .  S
C1904      C1905   1.486       .  S
C1904      H1916   1.085       .  S
C1905      C1906   1.401       .  A
C1905      C1910   1.409       .  A
C1906      C1907   1.391       .  A
C1906      H1917   1.084       .  S
C1907      C1908   1.405       .  A
C1907      H1918   1.083       .  S
C1908      C1909   1.408       .  A
C1909      C1910   1.403       .  A
C1909      H1919   1.083       .  S
C1910      H1920   1.081       .  S
C1921      C1922   1.408       .  A
C1921      C1926   1.403       .  A
C1922      C1923   1.400       .  A
C1922      H1935   1.083       .  S
C1923      C1924   1.403       .  A
C1923      H1936   1.083       .  S
C1924      C1925   1.406       .  A
C1924      C1927   1.483       .  S
C1925      C1926   1.391       .  A
C1925      H1937   1.082       .  S
C1926      H1938   1.083       .  S
C1927      C1928   1.347       .  D
C1927      H1939   1.084       .  S
C1928      C1929   1.482       .  S
C1928      H1940   1.086       .  S
C1929      C1930   1.401       .  A
C1929      C1934   1.408       .  A
C1930      C1931   1.392       .  A
C1930      H1941   1.084       .  S
C1931      C1932   1.407       .  A
C1931      H1942   1.083       .  S
C1932      C1933   1.406       .  A
C1933      C1934   1.400       .  A
C1933      H1943   1.083       .  S
C1934      H1944   1.080       .  S
C1945      C1946   1.407       .  A
C1945      C1950   1.406       .  A
C1946      C1947   1.399   1_455  A
C1946      H1959   1.083       .  S
C1947      C1948   1.401       .  A
C1947      H1960   1.083       .  S
C1948      C1949   1.407   1_655  A
C1948      C1951   1.483       .  S
C1949      C1950   1.396       .  A
C1949      H1961   1.083       .  S
C1950      H1962   1.083       .  S
C1951      C1952   1.345       .  D
C1951      H1963   1.084       .  S
C1952      C1953   1.484       .  S
C1952      H1964   1.087       .  S
C1953      C1954   1.399       .  A
C1953      C1958   1.410       .  A
C1954      C1955   1.391       .  A
C1954      H1965   1.084       .  S
C1955      C1956   1.406       .  A
C1955      H1966   1.083       .  S
C1956      C1957   1.408       .  A
C1957      C1958   1.405       .  A
C1957      H1967   1.083       .  S
C1958      H1968   1.081       .  S
C1969      C1970   1.405       .  A
C1969      C1974   1.407       .  A
C1970      C1971   1.396       .  A
C1970      H1983   1.083       .  S
C1971      C1972   1.404       .  A
C1971      H1984   1.084       .  S
C1972      C1973   1.409       .  A
C1972      C1975   1.490       .  S
C1973      C1974   1.402       .  A
C1973      H1985   1.080       .  S
C1974      H1986   1.083       .  S
C1975      C1976   1.350       .  D
C1975      H1987   1.086       .  S
C1976      C1977   1.488       .  S
C1976      H1988   1.083       .  S
C1977      C1978   1.405       .  A
C1977      C1982   1.406   1_655  A
C1978      C1979   1.402   1_655  A
C1978      H1989   1.083       .  S
C1979      C1980   1.407       .  A
C1979      H1990   1.083       .  S
C1980      C1981   1.405       .  A
C1981      C1982   1.393       .  A
C1981      H1991   1.083       .  S
C1982      H1992   1.082       .  S
C1993      C1994   1.405       .  A
C1993      C1998   1.405       .  A
C1994      C1995   1.400       .  A
C1994      H2007   1.083       .  S
C1995      C1996   1.403       .  A
C1995      H2008   1.083       .  S
C1996      C1997   1.407       .  A
C1996      C1999   1.485       .  S
C1997      C1998   1.393       .  A
C1997      H2009   1.082       .  S
C1998      H2010   1.083       .  S
C1999      C2000   1.346       .  D
C1999      H2011   1.083       .  S
C2000      C2001   1.485       .  S
C2000      H2012   1.085       .  S
C2001      C2002   1.402       .  A
C2001      C2006   1.409       .  A
C2002      C2003   1.391       .  A
C2002      H2013   1.084       .  S
C2003      C2004   1.404       .  A
C2003      H2014   1.083       .  S
C2004      C2005   1.407       .  A
C2005      C2006   1.401       .  A
C2005      H2015   1.083       .  S
C2006      H2016   1.080       .  S
C2017      C2018   1.407       .  A
C2017      C2022   1.404       .  A
C2018      C2019   1.400   1_455  A
C2018      H2031   1.083       .  S
C2019      C2020   1.403       .  A
C2019      H2032   1.083       .  S
C2020      C2021   1.408   1_655  A
C2020      C2023   1.486       .  S
C2021      C2022   1.393       .  A
C2021      H2033   1.082       .  S
C2022      H2034   1.083       .  S
C2023      C2024   1.345       .  D
C2023      H2035   1.084       .  S
C2024      C2025   1.484       .  S
C2024      H2036   1.086       .  S
C2025      C2026   1.400       .  A
C2025      C2030   1.410       .  A
C2026      C2027   1.389       .  A
C2026      H2037   1.084       .  S
C2027      C2028   1.405       .  A
C2027      H2038   1.083       .  S
C2028      C2029   1.407       .  A
C2029      C2030   1.403       .  A
C2029      H2039   1.083       .  S
C2030      H2040   1.080       .  S
C2041      C2042   1.408       .  A
C2041      C2046   1.404       .  A
C2042      C2043   1.401       .  A
C2042      H2055   1.083       .  S
C2043      C2044   1.404       .  A
C2043      H2056   1.083       .  S
C2044      C2045   1.405       .  A
C2044      C2047   1.483       .  S
C2045      C2046   1.392       .  A
C2045      H2057   1.082       .  S
C2046      H2058   1.083       .  S
C2047      C2048   1.349       .  D
C2047      H2059   1.083       .  S
C2048      C2049   1.488       .  S
C2048      H2060   1.087       .  S
C2049      C2050   1.403       .  A
C2049      C2054   1.409       .  A
C2050      C2051   1.395       .  A
C2050      H2061   1.084       .  S
C2051      C2052   1.407       .  A
C2051      H2062   1.083       .  S
C2052      C2053   1.407       .  A
C2053      C2054   1.402       .  A
C2053      H2063   1.083       .  S
C2054      H2064   1.080       .  S
C2065      C2066   1.406       .  A
C2065      C2070   1.407       .  A
C2066      C2067   1.401       .  A
C2066      H2079   1.083       .  S
C2067      C2068   1.404       .  A
C2067      H2080   1.083       .  S
C2068      C2069   1.406       .  A
C2068      C2071   1.486       .  S
C2069      C2070   1.393       .  A
C2069      H2081   1.082       .  S
C2070      H2082   1.083       .  S
C2071      C2072   1.347       .  D
C2071      H2083   1.085       .  S
C2072      C2073   1.483       .  S
C2072      H2084   1.085       .  S
C2073      C2074   1.401       .  A
C2073      C2078   1.408       .  A
C2074      C2075   1.393       .  A
C2074      H2085   1.084       .  S
C2075      C2076   1.406       .  A
C2075      H2086   1.083       .  S
C2076      C2077   1.409       .  A
C2077      C2078   1.402       .  A
C2077      H2087   1.083       .  S
C2078      H2088   1.082       .  S
C2089      C2090   1.407       .  A
C2089      C2094   1.405       .  A
C2090      C2091   1.400   1_455  A
C2090      H2103   1.083       .  S
C2091      C2092   1.403       .  A
C2091      H2104   1.083       .  S
C2092      C2093   1.406   1_655  A
C2092      C2095   1.482       .  S
C2093      C2094   1.393       .  A
C2093      H2105   1.082       .  S
C2094      H2106   1.083       .  S
C2095      C2096   1.347       .  D
C2095      H2107   1.083       .  S
C2096      C2097   1.486       .  S
C2096      H2108   1.086       .  S
C2097      C2098   1.404       .  A
C2097      C2102   1.410       .  A
C2098      C2099   1.394       .  A
C2098      H2109   1.084       .  S
C2099      C2100   1.403       .  A
C2099      H2110   1.083       .  S
C2100      C2101   1.404       .  A
C2101      C2102   1.399       .  A
C2101      H2111   1.083       .  S
C2102      H2112   1.080       .  S
C2113      C2114   1.406       .  A
C2113      C2118   1.403       .  A
C2114      C2115   1.396       .  A
C2114      H2127   1.083       .  S
C2115      C2116   1.401       .  A
C2115      H2128   1.084       .  S
C2116      C2117   1.409       .  A
C2116      C2119   1.485       .  S
C2117      C2118   1.401       .  A
C2117      H2129   1.082       .  S
C2118      H2130   1.083       .  S
C2119      C2120   1.346       .  D
C2119      H2131   1.086       .  S
C2120      C2121   1.483       .  S
C2120      H2132   1.085       .  S
C2121      C2122   1.401       .  A
C2121      C2126   1.408       .  A
C2122      C2123   1.396       .  A
C2122      H2133   1.084       .  S
C2123      C2124   1.407       .  A
C2123      H2134   1.083       .  S
C2124      C2125   1.404       .  A
C2125      C2126   1.399       .  A
C2125      H2135   1.083       .  S
C2126      H2136   1.082       .  S
C2137      C2138   1.408       .  A
C2137      C2142   1.409       .  A
C2138      C2139   1.390       .  A
C2138      H2151   1.083       .  S
C2139      C2140   1.398       .  A
C2139      H2152   1.084       .  S
C2140      C2141   1.408   1_455  A
C2140      C2143   1.481   1_455  S
C2141      C2142   1.407   1_655  A
C2141      H2153   1.082       .  S
C2142      H2154   1.083       .  S
C2143      C2144   1.345       .  D
C2143      H2155   1.086       .  S
C2144      C2145   1.489       .  S
C2144      H2156   1.086       .  S
C2145      C2146   1.403       .  A
C2145      C2150   1.408       .  A
C2146      C2147   1.403       .  A
C2146      H2157   1.083       .  S
C2147      C2148   1.410       .  A
C2147      H2158   1.083       .  S
C2148      C2149   1.404       .  A
C2149      C2150   1.395       .  A
C2149      H2159   1.083       .  S
C2150      H2160   1.082       .  S
C2161      C2162   1.405       .  A
C2161      C2166   1.405       .  A
C2162      C2163   1.392       .  A
C2162      H2175   1.083       .  S
C2163      C2164   1.402       .  A
C2163      H2176   1.084       .  S
C2164      C2165   1.413       .  A
C2164      C2167   1.492       .  S
C2165      C2166   1.407       .  A
C2165      H2177   1.080       .  S
C2166      H2178   1.083       .  S
C2167      C2168   1.347       .  D
C2167      H2179   1.086       .  S
C2168      C2169   1.489       .  S
C2168      H2180   1.083       .  S
C2169      C2170   1.401       .  A
C2169      C2174   1.409       .  A
C2170      C2171   1.398       .  A
C2170      H2181   1.083       .  S
C2171      C2172   1.409       .  A
C2171      H2182   1.083       .  S
C2172      C2173   1.406       .  A
C2173      C2174   1.400       .  A
C2173      H2183   1.083       .  S
C2174      H2184   1.082       .  S
C2185      C2186   1.406       .  A
C2185      C2190   1.405       .  A
C2186      C2187   1.402   1_455  A
C2186      H2199   1.083       .  S
C2187      C2188   1.405       .  A
C2187      H2200   1.083       .  S
C2188      C2189   1.406   1_655  A
C2188      C2191   1.487       .  S
C2189      C2190   1.394       .  A
C2189      H2201   1.082       .  S
C2190      H2202   1.083       .  S
C2191      C2192   1.349       .  D
C2191      H2203   1.083       .  S
C2192      C2193   1.490       .  S
C2192      H2204   1.086       .  S
C2193      C2194   1.403       .  A
C2193      C2198   1.410       .  A
C2194      C2195   1.394       .  A
C2194      H2205   1.084       .  S
C2195      C2196   1.406       .  A
C2195      H2206   1.083       .  S
C2196      C2197   1.408       .  A
C2197      C2198   1.405       .  A
C2197      H2207   1.083       .  S
C2198      H2208   1.080       .  S
C2209      C2210   1.406       .  A
C2209      C2214   1.410       .  A
C2210      C2211   1.396       .  A
C2210      H2223   1.083       .  S
C2211      C2212   1.404       .  A
C2211      H2224   1.084       .  S
C2212      C2213   1.408       .  A
C2212      C2215   1.493       .  S
C2213      C2214   1.406       .  A
C2213      H2225   1.081       .  S
C2214      H2226   1.083       .  S
C2215      C2216   1.353       .  D
C2215      H2227   1.083       .  S
C2216      C2217   1.500       .  S
C2216      H2228   1.085       .  S
C2217      C2218   1.409       .  A
C2217      C2222   1.409       .  A
C2218      C2219   1.406       .  A
C2218      H2229   1.083       .  S
C2219      C2220   1.405       .  A
C2219      H2230   1.083       .  S
C2220      C2221   1.406       .  A
C2221      C2222   1.397       .  A
C2221      H2231   1.083       .  S
C2222      H2232   1.080       .  S
C2233      C2234   1.406       .  A
C2233      C2238   1.409       .  A
C2234      C2235   1.391       .  A
C2234      H2247   1.083       .  S
C2235      C2236   1.401       .  A
C2235      H2248   1.084       .  S
C2236      C2237   1.411       .  A
C2236      C2239   1.491   1_455  S
C2237      C2238   1.409       .  A
C2237      H2249   1.081   1_455  S
C2238      H2250   1.083       .  S
C2239      C2240   1.348       .  D
C2239      H2251   1.086       .  S
C2240      C2241   1.493       .  S
C2240      H2252   1.084       .  S
C2241      C2242   1.404       .  A
C2241      C2246   1.408       .  A
C2242      C2243   1.403       .  A
C2242      H2253   1.083       .  S
C2243      C2244   1.409       .  A
C2243      H2254   1.083       .  S
C2244      C2245   1.406       .  A
C2245      C2246   1.396       .  A
C2245      H2255   1.083       .  S
C2246      H2256   1.082       .  S
C2257      C2258   1.407       .  A
C2257      C2262   1.405       .  A
C2258      C2259   1.404       .  A
C2258      H2271   1.083       .  S
C2259      C2260   1.406       .  A
C2259      H2272   1.083       .  S
C2260      C2261   1.406       .  A
C2260      C2263   1.489       .  S
C2261      C2262   1.392       .  A
C2261      H2273   1.082       .  S
C2262      H2274   1.083       .  S
C2263      C2264   1.350       .  D
C2263      H2275   1.083       .  S
C2264      C2265   1.488       .  S
C2264      H2276   1.085       .  S
C2265      C2266   1.404       .  A
C2265      C2270   1.408       .  A
C2266      C2267   1.393       .  A
C2266      H2277   1.084       .  S
C2267      C2268   1.405       .  A
C2267      H2278   1.083       .  S
C2268      C2269   1.407       .  A
C2269      C2270   1.401       .  A
C2269      H2279   1.083       .  S
C2270      H2280   1.080       .  S
C2281      C2282   1.407       .  A
C2281      C2286   1.406       .  A
C2282      C2283   1.394       .  A
C2282      H2295   1.083       .  S
C2283      C2284   1.399       .  A
C2283      H2296   1.083       .  S
C2284      C2285   1.409       .  A
C2284      C2287   1.483       .  S
C2285      C2286   1.401       .  A
C2285      H2297   1.082       .  S
C2286      H2298   1.083       .  S
C2287      C2288   1.343       .  D
C2287      H2299   1.084       .  S
C2288      C2289   1.486       .  S
C2288      H2300   1.086       .  S
C2289      C2290   1.399       .  A
C2289      C2294   1.412       .  A
C2290      C2291   1.392       .  A
C2290      H2301   1.084       .  S
C2291      C2292   1.407       .  A
C2291      H2302   1.083       .  S
C2292      C2293   1.405       .  A
C2293      C2294   1.405       .  A
C2293      H2303   1.083       .  S
C2294      H2304   1.081       .  S
C2305      C2306   1.402       .  A
C2305      C2310   1.408       .  A
C2306      C2307   1.394       .  A
C2306      H2319   1.083       .  S
C2307      C2308   1.404       .  A
C2307      H2320   1.083       .  S
C2308      C2309   1.408       .  A
C2308      C2311   1.486       .  S
C2309      C2310   1.399       .  A
C2309      H2321   1.080       .  S
C2310      H2322   1.083       .  S
C2311      C2312   1.346       .  D
C2311      H2323   1.087       .  S
C2312      C2313   1.482       .  S
C2312      H2324   1.083       .  S
C2313      C2314   1.402       .  A
C2313      C2318   1.406       .  A
C2314      C2315   1.400       .  A
C2314      H2325   1.083       .  S
C2315      C2316   1.407       .  A
C2315      H2326   1.083       .  S
C2316      C2317   1.406       .  A
C2317      C2318   1.394       .  A
C2317      H2327   1.083       .  S
C2318      H2328   1.083       .  S
C2329      C2330   1.409       .  A
C2329      C2334   1.405       .  A
C2330      C2331   1.400       .  A
C2330      H2343   1.083       .  S
C2331      C2332   1.402       .  A
C2331      H2344   1.083       .  S
C2332      C2333   1.408       .  A
C2332      C2335   1.488       .  S
C2333      C2334   1.395       .  A
C2333      H2345   1.082       .  S
C2334      H2346   1.083       .  S
C2335      C2336   1.347       .  D
C2335      H2347   1.084       .  S
C2336      C2337   1.487       .  S
C2336      H2348   1.086       .  S
C2337      C2338   1.402       .  A
C2337      C2342   1.411       .  A
C2338      C2339   1.391       .  A
C2338      H2349   1.084       .  S
C2339      C2340   1.404       .  A
C2339      H2350   1.083       .  S
C2340      C2341   1.406       .  A
C2341      C2342   1.405       .  A
C2341      H2351   1.083       .  S
C2342      H2352   1.080       .  S
C2353      C2354   1.404       .  A
C2353      C2358   1.405       .  A
C2354      C2355   1.393       .  A
C2354      H2367   1.083       .  S
C2355      C2356   1.402       .  A
C2355      H2368   1.083       .  S
C2356      C2357   1.410       .  A
C2356      C2359   1.487       .  S
C2357      C2358   1.403       .  A
C2357      H2369   1.081       .  S
C2358      H2370   1.083       .  S
C2359      C2360   1.347       .  D
C2359      H2371   1.085       .  S
C2360      C2361   1.489       .  S
C2360      H2372   1.085       .  S
C2361      C2362   1.404       .  A
C2361      C2366   1.410       .  A
C2362      C2363   1.400       .  A
C2362      H2373   1.083       .  S
C2363      C2364   1.407       .  A
C2363      H2374   1.083       .  S
C2364      C2365   1.404       .  A
C2365      C2366   1.398       .  A
C2365      H2375   1.083       .  S
C2366      H2376   1.081       .  S
C2377      C2378   1.403       .  A
C2377      C2382   1.405       .  A
C2378      C2379   1.393       .  A
C2378      H2391   1.083       .  S
C2379      C2380   1.402       .  A
C2379      H2392   1.084       .  S
C2380      C2381   1.411       .  A
C2380      C2383   1.488       .  S
C2381      C2382   1.403       .  A
C2381      H2393   1.080       .  S
C2382      H2394   1.083       .  S
C2383      C2384   1.346       .  D
C2383      H2395   1.087       .  S
C2384      C2385   1.484       .  S
C2384      H2396   1.084       .  S
C2385      C2386   1.401       .  A
C2385      C2390   1.407       .  A
C2386      C2387   1.399       .  A
C2386      H2397   1.083       .  S
C2387      C2388   1.409       .  A
C2387      H2398   1.083       .  S
C2388      C2389   1.406       .  A
C2389      C2390   1.396       .  A
C2389      H2399   1.083       .  S
C2390      H2400   1.082       .  S
C2401      C2402   1.406       .  A
C2401      C2406   1.405       .  A
C2402      C2403   1.393       .  A
C2402      H2415   1.083       .  S
C2403      C2404   1.401       .  A
C2403      H2416   1.084       .  S
C2404      C2405   1.410       .  A
C2404      C2407   1.485       .  S
C2405      C2406   1.402       .  A
C2405      H2417   1.080       .  S
C2406      H2418   1.083       .  S
C2407      C2408   1.345       .  D
C2407      H2419   1.086       .  S
C2408      C2409   1.481       .  S
C2408      H2420   1.084       .  S
C2409      C2410   1.401       .  A
C2409      C2414   1.407       .  A
C2410      C2411   1.397       .  A
C2410      H2421   1.083       .  S
C2411      C2412   1.406       .  A
C2411      H2422   1.083       .  S
C2412      C2413   1.405       .  A
C2413      C2414   1.395       .  A
C2413      H2423   1.083       .  S
C2414      H2424   1.082       .  S
C2425      C2426   1.404       .  A
C2425      C2430   1.408       .  A
C2426      C2427   1.392       .  A
C2426      H2439   1.083       .  S
C2427      C2428   1.403       .  A
C2427      H2440   1.084       .  S
C2428      C2429   1.408       .  A
C2428      C2431   1.484       .  S
C2429      C2430   1.401       .  A
C2429      H2441   1.080       .  S
C2430      H2442   1.083       .  S
C2431      C2432   1.347       .  D
C2431      H2443   1.087       .  S
C2432      C2433   1.482       .  S
C2432      H2444   1.083       .  S
C2433      C2434   1.403       .  A
C2433      C2438   1.405       .  A
C2434      C2435   1.402       .  A
C2434      H2445   1.083       .  S
C2435      C2436   1.407       .  A
C2435      H2446   1.083       .  S
C2436      C2437   1.403       .  A
C2437      C2438   1.391       .  A
C2437      H2447   1.083       .  S
C2438      H2448   1.083       .  S
C2449      C2450   1.404       .  A
C2449      C2454   1.406       .  A
C2450      C2451   1.390       .  A
C2450      H2463   1.083       .  S
C2451      C2452   1.402       .  A
C2451      H2464   1.084       .  S
C2452      C2453   1.408       .  A
C2452      C2455   1.480       .  S
C2453      C2454   1.397       .  A
C2453      H2465   1.080       .  S
C2454      H2466   1.083       .  S
C2455      C2456   1.345       .  D
C2455      H2467   1.086       .  S
C2456      C2457   1.478       .  S
C2456      H2468   1.083       .  S
C2457      C2458   1.402       .  A
C2457      C2462   1.405       .  A
C2458      C2459   1.397       .  A
C2458      H2469   1.083       .  S
C2459      C2460   1.404       .  A
C2459      H2470   1.083       .  S
C2460      C2461   1.405       .  A
C2461      C2462   1.389       .  A
C2461      H2471   1.083       .  S
C2462      H2472   1.082       .  S
C2473      C2474   1.405       .  A
C2473      C2478   1.405       .  A
C2474      C2475   1.391       .  A
C2474      H2487   1.083       .  S
C2475      C2476   1.401       .  A
C2475      H2488   1.084       .  S
C2476      C2477   1.412       .  A
C2476      C2479   1.490       .  S
C2477      C2478   1.404       .  A
C2477      H2489   1.080       .  S
C2478      H2490   1.083       .  S
C2479      C2480   1.347       .  D
C2479      H2491   1.084       .  S
C2480      C2481   1.490       .  S
C2480      H2492   1.083       .  S
C2481      C2482   1.402       .  A
C2481      C2486   1.411       .  A
C2482      C2483   1.398       .  A
C2482      H2493   1.084       .  S
C2483      C2484   1.409       .  A
C2483      H2494   1.083       .  S
C2484      C2485   1.405       .  A
C2485      C2486   1.400       .  A
C2485      H2495   1.083       .  S
C2486      H2496   1.081       .  S
C2497      C2498   1.406       .  A
C2497      C2502   1.406       .  A
C2498      C2499   1.393       .  A
C2498      H2511   1.083       .  S
C2499      C2500   1.403       .  A
C2499      H2512   1.084       .  S
C2500      C2501   1.411       .  A
C2500      C2503   1.491       .  S
C2501      C2502   1.406       .  A
C2501      H2513   1.080       .  S
C2502      H2514   1.083       .  S
C2503      C2504   1.348       .  D
C2503      H2515   1.086       .  S
C2504      C2505   1.490       .  S
C2504      H2516   1.084       .  S
C2505      C2506   1.403       .  A
C2505      C2510   1.407       .  A
C2506      C2507   1.402       .  A
C2506      H2517   1.083       .  S
C2507      C2508   1.409       .  A
C2507      H2518   1.083       .  S
C2508      C2509   1.405       .  A
C2509      C2510   1.397       .  A
C2509      H2519   1.083       .  S
C2510      H2520   1.082       .  S
C2521      C2522   1.408       .  A
C2521      C2526   1.405       .  A
C2522      C2523   1.402       .  A
C2522      H2535   1.083       .  S
C2523      C2524   1.404       .  A
C2523      H2536   1.083       .  S
C2524      C2525   1.407       .  A
C2524      C2527   1.488       .  S
C2525      C2526   1.393       .  A
C2525      H2537   1.081       .  S
C2526      H2538   1.083       .  S
C2527      C2528   1.347       .  D
C2527      H2539   1.084       .  S
C2528      C2529   1.487       .  S
C2528      H2540   1.085       .  S
C2529      C2530   1.402       .  A
C2529      C2534   1.410       .  A
C2530      C2531   1.391       .  A
C2530      H2541   1.084       .  S
C2531      C2532   1.405       .  A
C2531      H2542   1.083       .  S
C2532      C2533   1.407       .  A
C2533      C2534   1.404       .  A
C2533      H2543   1.083       .  S
C2534      H2544   1.080       .  S
C2545      C2546   1.408       .  A
C2545      C2550   1.405       .  A
C2546      C2547   1.399       .  A
C2546      H2559   1.083       .  S
C2547      C2548   1.403       .  A
C2547      H2560   1.083       .  S
C2548      C2549   1.408       .  A
C2548      C2551   1.487       .  S
C2549      C2550   1.395       .  A
C2549      H2561   1.082       .  S
C2550      H2562   1.083       .  S
C2551      C2552   1.347       .  D
C2551      H2563   1.083       .  S
C2552      C2553   1.489       .  S
C2552      H2564   1.086       .  S
C2553      C2554   1.402       .  A
C2553      C2558   1.412       .  A
C2554      C2555   1.393       .  A
C2554      H2565   1.084       .  S
C2555      C2556   1.406       .  A
C2555      H2566   1.083       .  S
C2556      C2557   1.404       .  A
C2557      C2558   1.405       .  A
C2557      H2567   1.083       .  S
C2558      H2568   1.080       .  S
C2569      C2570   1.407       .  A
C2569      C2574   1.407       .  A
C2570      C2571   1.399       .  A
C2570      H2583   1.083       .  S
C2571      C2572   1.401       .  A
C2571      H2584   1.083       .  S
C2572      C2573   1.406       .  A
C2572      C2575   1.481       .  S
C2573      C2574   1.395       .  A
C2573      H2585   1.082       .  S
C2574      H2586   1.083       .  S
C2575      C2576   1.344       .  D
C2575      H2587   1.085       .  S
C2576      C2577   1.479       .  S
C2576      H2588   1.086       .  S
C2577      C2578   1.399       .  A
C2577      C2582   1.409       .  A
C2578      C2579   1.390       .  A
C2578      H2589   1.084       .  S
C2579      C2580   1.406       .  A
C2579      H2590   1.083       .  S
C2580      C2581   1.404       .  A
C2581      C2582   1.401       .  A
C2581      H2591   1.083       .  S
C2582      H2592   1.081       .  S
C2593      C2594   1.407       .  A
C2593      C2598   1.405       .  A
C2594      C2595   1.396       .  A
C2594      H2607   1.083       .  S
C2595      C2596   1.400       .  A
C2595      H2608   1.083       .  S
C2596      C2597   1.408       .  A
C2596      C2599   1.481       .  S
C2597      C2598   1.399       .  A
C2597      H2609   1.082       .  S
C2598      H2610   1.083       .  S
C2599      C2600   1.345       .  D
C2599      H2611   1.084       .  S
C2600      C2601   1.485       .  S
C2600      H2612   1.087       .  S
C2601      C2602   1.401       .  A
C2601      C2606   1.411   1_655  A
C2602      C2603   1.393       .  A
C2602      H2613   1.084       .  S
C2603      C2604   1.406   1_655  A
C2603      H2614   1.083       .  S
C2604      C2605   1.402       .  A
C2605      C2606   1.401       .  A
C2605      H2615   1.083       .  S
C2606      H2616   1.080       .  S
C2617      C2618   1.406   1_455  A
C2617      C2622   1.405       .  A
C2618      C2619   1.392       .  A
C2618      H2631   1.083       .  S
C2619      C2620   1.402       .  A
C2619      H2632   1.084       .  S
C2620      C2621   1.413   1_655  A
C2620      C2623   1.492       .  S
C2621      C2622   1.406       .  A
C2621      H2633   1.080       .  S
C2622      H2634   1.083       .  S
C2623      C2624   1.348       .  D
C2623      H2635   1.085       .  S
C2624      C2625   1.492       .  S
C2624      H2636   1.083       .  S
C2625      C2626   1.402       .  A
C2625      C2630   1.410       .  A
C2626      C2627   1.400       .  A
C2626      H2637   1.083       .  S
C2627      C2628   1.410       .  A
C2627      H2638   1.083       .  S
C2628      C2629   1.405       .  A
C2629      C2630   1.399       .  A
C2629      H2639   1.083       .  S
C2630      H2640   1.081       .  S
C2641      C2642   1.407       .  A
C2641      C2646   1.406       .  A
C2642      C2643   1.404       .  A
C2642      H2655   1.083       .  S
C2643      C2644   1.406       .  A
C2643      H2656   1.083       .  S
C2644      C2645   1.408       .  A
C2644      C2647   1.495       .  S
C2645      C2646   1.395       .  A
C2645      H2657   1.081       .  S
C2646      H2658   1.083       .  S
C2647      C2648   1.349       .  D
C2647      H2659   1.084       .  S
C2648      C2649   1.492       .  S
C2648      H2660   1.085       .  S
C2649      C2650   1.402       .  A
C2649      C2654   1.412       .  A
C2650      C2651   1.391       .  A
C2650      H2661   1.084       .  S
C2651      C2652   1.406       .  A
C2651      H2662   1.083       .  S
C2652      C2653   1.408       .  A
C2653      C2654   1.408       .  A
C2653      H2663   1.083       .  S
C2654      H2664   1.080       .  S
C2665      C2666   1.405       .  A
C2665      C2670   1.409       .  A
C2666      C2667   1.390       .  A
C2666      H2679   1.083       .  S
C2667      C2668   1.400       .  A
C2667      H2680   1.084       .  S
C2668      C2669   1.408       .  A
C2668      C2671   1.482       .  S
C2669      C2670   1.404       .  A
C2669      H2681   1.082       .  S
C2670      H2682   1.083       .  S
C2671      C2672   1.346       .  D
C2671      H2683   1.085       .  S
C2672      C2673   1.488       .  S
C2672      H2684   1.085       .  S
C2673      C2674   1.404       .  A
C2673      C2678   1.407       .  A
C2674      C2675   1.402       .  A
C2674      H2685   1.083       .  S
C2675      C2676   1.408       .  A
C2675      H2686   1.083       .  S
C2676      C2677   1.405       .  A
C2677      C2678   1.393       .  A
C2677      H2687   1.083       .  S
C2678      H2688   1.082       .  S
C2689      C2690   1.406       .  A
C2689      C2694   1.410       .  A
C2690      C2691   1.397       .  A
C2690      H2703   1.083       .  S
C2691      C2692   1.404       .  A
C2691      H2704   1.084       .  S
C2692      C2693   1.408       .  A
C2692      C2695   1.491       .  S
C2693      C2694   1.406       .  A
C2693      H2705   1.081       .  S
C2694      H2706   1.083       .  S
C2695      C2696   1.351       .  D
C2695      H2707   1.085       .  S
C2696      C2697   1.495       .  S
C2696      H2708   1.085       .  S
C2697      C2698   1.406       .  A
C2697      C2702   1.407       .  A
C2698      C2699   1.406       .  A
C2698      H2709   1.083       .  S
C2699      C2700   1.409       .  A
C2699      H2710   1.083       .  S
C2700      C2701   1.406       .  A
C2701      C2702   1.396       .  A
C2701      H2711   1.083       .  S
C2702      H2712   1.081       .  S
C2713      C2714   1.409       .  A
C2713      C2718   1.405       .  A
C2714      C2715   1.402       .  A
C2714      H2727   1.083       .  S
C2715      C2716   1.403       .  A
C2715      H2728   1.083       .  S
C2716      C2717   1.407       .  A
C2716      C2719   1.487       .  S
C2717      C2718   1.396       .  A
C2717      H2729   1.083       .  S
C2718      H2730   1.083       .  S
C2719      C2720   1.348       .  D
C2719      H2731   1.083       .  S
C2720      C2721   1.490       .  S
C2720      H2732   1.087       .  S
C2721      C2722   1.405       .  A
C2721      C2726   1.409       .  A
C2722      C2723   1.396       .  A
C2722      H2733   1.083       .  S
C2723      C2724   1.403       .  A
C2723      H2734   1.083       .  S
C2724      C2725   1.408       .  A
C2725      C2726   1.402       .  A
C2725      H2735   1.083       .  S
C2726      H2736   1.080       .  S
C2737      C2738   1.402       .  A
C2737      C2742   1.403       .  A
C2738      C2739   1.394       .  A
C2738      H2751   1.083       .  S
C2739      C2740   1.403       .  A
C2739      H2752   1.083       .  S
C2740      C2741   1.412       .  A
C2740      C2743   1.490       .  S
C2741      C2742   1.402       .  A
C2741      H2753   1.080       .  S
C2742      H2754   1.083       .  S
C2743      C2744   1.346       .  D
C2743      H2755   1.086       .  S
C2744      C2745   1.486       .  S
C2744      H2756   1.083       .  S
C2745      C2746   1.401       .  A
C2745      C2750   1.408       .  A
C2746      C2747   1.398       .  A
C2746      H2757   1.083       .  S
C2747      C2748   1.408       .  A
C2747      H2758   1.083       .  S
C2748      C2749   1.405       .  A
C2749      C2750   1.399       .  A
C2749      H2759   1.083       .  S
C2750      H2760   1.082       .  S
C2761      C2762   1.404       .  A
C2761      C2766   1.405       .  A
C2762      C2763   1.392       .  A
C2762      H2775   1.083       .  S
C2763      C2764   1.402       .  A
C2763      H2776   1.084       .  S
C2764      C2765   1.412       .  A
C2764      C2767   1.490       .  S
C2765      C2766   1.406       .  A
C2765      H2777   1.080       .  S
C2766      H2778   1.083       .  S
C2767      C2768   1.346       .  D
C2767      H2779   1.087       .  S
C2768      C2769   1.485       .  S
C2768      H2780   1.083       .  S
C2769      C2770   1.399       .  A
C2769      C2774   1.408       .  A
C2770      C2771   1.398       .  A
C2770      H2781   1.083       .  S
C2771      C2772   1.411       .  A
C2771      H2782   1.083       .  S
C2772      C2773   1.405       .  A
C2773      C2774   1.400       .  A
C2773      H2783   1.083       .  S
C2774      H2784   1.083       .  S
C2785      C2786   1.405       .  A
C2785      C2790   1.407       .  A
C2786      C2787   1.395       .  A
C2786      H2799   1.083       .  S
C2787      C2788   1.403       .  A
C2787      H2800   1.083       .  S
C2788      C2789   1.408       .  A
C2788      C2791   1.486       .  S
C2789      C2790   1.401       .  A
C2789      H2801   1.081       .  S
C2790      H2802   1.083       .  S
C2791      C2792   1.347       .  D
C2791      H2803   1.086       .  S
C2792      C2793   1.487       .  S
C2792      H2804   1.085       .  S
C2793      C2794   1.403       .  A
C2793      C2798   1.407       .  A
C2794      C2795   1.399       .  A
C2794      H2805   1.083       .  S
C2795      C2796   1.405       .  A
C2795      H2806   1.083       .  S
C2796      C2797   1.406       .  A
C2797      C2798   1.397       .  A
C2797      H2807   1.083       .  S
C2798      H2808   1.082       .  S
C2809      C2810   1.404       .  A
C2809      C2814   1.408       .  A
C2810      C2811   1.394       .  A
C2810      H2823   1.083       .  S
C2811      C2812   1.403       .  A
C2811      H2824   1.083       .  S
C2812      C2813   1.412       .  A
C2812      C2815   1.494       .  S
C2813      C2814   1.406       .  A
C2813      H2825   1.080       .  S
C2814      H2826   1.083       .  S
C2815      C2816   1.349       .  D
C2815      H2827   1.085       .  S
C2816      C2817   1.493       .  S
C2816      H2828   1.083       .  S
C2817      C2818   1.404       .  A
C2817      C2822   1.409       .  A
C2818      C2819   1.402       .  A
C2818      H2829   1.083       .  S
C2819      C2820   1.408       .  A
C2819      H2830   1.083       .  S
C2820      C2821   1.407       .  A
C2821      C2822   1.399       .  A
C2821      H2831   1.083       .  S
C2822      H2832   1.081       .  S
C2833      C2834   1.405       .  A
C2833      C2838   1.407       .  A
C2834      C2835   1.400       .  A
C2834      H2847   1.083       .  S
C2835      C2836   1.404       .  A
C2835      H2848   1.083       .  S
C2836      C2837   1.408       .  A
C2836      C2839   1.488       .  S
C2837      C2838   1.397       .  A
C2837      H2849   1.082       .  S
C2838      H2850   1.083       .  S
C2839      C2840   1.347       .  D
C2839      H2851   1.083       .  S
C2840      C2841   1.490       .  S
C2840      H2852   1.085       .  S
C2841      C2842   1.402       .  A
C2841      C2846   1.412       .  A
C2842      C2843   1.392       .  A
C2842      H2853   1.084       .  S
C2843      C2844   1.406       .  A
C2843      H2854   1.083       .  S
C2844      C2845   1.406       .  A
C2845      C2846   1.404       .  A
C2845      H2855   1.083       .  S
C2846      H2856   1.080       .  S
C2857      C2858   1.405       .  A
C2857      C2862   1.407       .  A
C2858      C2859   1.394       .  A
C2858      H2871   1.083       .  S
C2859      C2860   1.404       .  A
C2859      H2872   1.084       .  S
C2860      C2861   1.410       .  A
C2860      C2863   1.491       .  S
C2861      C2862   1.405       .  A
C2861      H2873   1.081       .  S
C2862      H2874   1.083       .  S
C2863      C2864   1.351       .  D
C2863      H2875   1.084       .  S
C2864      C2865   1.495       .  S
C2864      H2876   1.084       .  S
C2865      C2866   1.408       .  A
C2865      C2870   1.407       .  A
C2866      C2867   1.407       .  A
C2866      H2877   1.083       .  S
C2867      C2868   1.406       .  A
C2867      H2878   1.083       .  S
C2868      C2869   1.405       .  A
C2869      C2870   1.394       .  A
C2869      H2879   1.083       .  S
C2870      H2880   1.081       .  S
C2881      C2882   1.405       .  A
C2881      C2886   1.403   1_455  A
C2882      C2883   1.399       .  A
C2882      H2895   1.083       .  S
C2883      C2884   1.403   1_455  A
C2883      H2896   1.083       .  S
C2884      C2885   1.406       .  A
C2884      C2887   1.481       .  S
C2885      C2886   1.391       .  A
C2885      H2897   1.082       .  S
C2886      H2898   1.083       .  S
C2887      C2888   1.346       .  D
C2887      H2899   1.084       .  S
C2888      C2889   1.481       .  S
C2888      H2900   1.086       .  S
C2889      C2890   1.402       .  A
C2889      C2894   1.407       .  A
C2890      C2891   1.393       .  A
C2890      H2901   1.084       .  S
C2891      C2892   1.404       .  A
C2891      H2902   1.083       .  S
C2892      C2893   1.406       .  A
C2893      C2894   1.398       .  A
C2893      H2903   1.083       .  S
C2894      H2904   1.081       .  S
C2905      C2906   1.407   1_455  A
C2905      C2910   1.407       .  A
C2906      C2907   1.390       .  A
C2906      H2919   1.083       .  S
C2907      C2908   1.398       .  A
C2907      H2920   1.084       .  S
C2908      C2909   1.408   1_655  A
C2908      C2911   1.480       .  S
C2909      C2910   1.404       .  A
C2909      H2921   1.082       .  S
C2910      H2922   1.083       .  S
C2911      C2912   1.344       .  D
C2911      H2923   1.085       .  S
C2912      C2913   1.486       .  S
C2912      H2924   1.086       .  S
C2913      C2914   1.402       .  A
C2913      C2918   1.409       .  A
C2914      C2915   1.399       .  A
C2914      H2925   1.083       .  S
C2915      C2916   1.408       .  A
C2915      H2926   1.083       .  S
C2916      C2917   1.405       .  A
C2917      C2918   1.398       .  A
C2917      H2927   1.083       .  S
C2918      H2928   1.082       .  S
C2929      C2930   1.410       .  A
C2929      C2934   1.405       .  A
C2930      C2931   1.402       .  A
C2930      H2943   1.083       .  S
C2931      C2932   1.403       .  A
C2931      H2944   1.083       .  S
C2932      C2933   1.409       .  A
C2932      C2935   1.491       .  S
C2933      C2934   1.397       .  A
C2933      H2945   1.082       .  S
C2934      H2946   1.083       .  S
C2935      C2936   1.348       .  D
C2935      H2947   1.084       .  S
C2936      C2937   1.491       .  S
C2936      H2948   1.086       .  S
C2937      C2938   1.403       .  A
C2937      C2942   1.410       .  A
C2938      C2939   1.393       .  A
C2938      H2949   1.084       .  S
C2939      C2940   1.404       .  A
C2939      H2950   1.083       .  S
C2940      C2941   1.409       .  A
C2941      C2942   1.406       .  A
C2941      H2951   1.083       .  S
C2942      H2952   1.081       .  S
C2953      C2954   1.407       .  A
C2953      C2958   1.402       .  A
C2954      C2955   1.399       .  A
C2954      H2967   1.083       .  S
C2955      C2956   1.403       .  A
C2955      H2968   1.083       .  S
C2956      C2957   1.407       .  A
C2956      C2959   1.485       .  S
C2957      C2958   1.395       .  A
C2957      H2969   1.082       .  S
C2958      H2970   1.083       .  S
C2959      C2960   1.348       .  D
C2959      H2971   1.084       .  S
C2960      C2961   1.485       .  S
C2960      H2972   1.086       .  S
C2961      C2962   1.403       .  A
C2961      C2966   1.407       .  A
C2962      C2963   1.395       .  A
C2962      H2973   1.084       .  S
C2963      C2964   1.405       .  A
C2963      H2974   1.083       .  S
C2964      C2965   1.408       .  A
C2965      C2966   1.400       .  A
C2965      H2975   1.083       .  S
C2966      H2976   1.081       .  S
C2977      C2978   1.409       .  A
C2977      C2982   1.403       .  A
C2978      C2979   1.400       .  A
C2978      H2991   1.083       .  S
C2979      C2980   1.403       .  A
C2979      H2992   1.083       .  S
C2980      C2981   1.412       .  A
C2980      C2983   1.496       .  S
C2981      C2982   1.402       .  A
C2981      H2993   1.081       .  S
C2982      H2994   1.083       .  S
C2983      C2984   1.350       .  D
C2983      H2995   1.084       .  S
C2984      C2985   1.496       .  S
C2984      H2996   1.085       .  S
C2985      C2986   1.403       .  A
C2985      C2990   1.413       .  A
C2986      C2987   1.394       .  A
C2986      H2997   1.084       .  S
C2987      C2988   1.404       .  A
C2987      H2998   1.083       .  S
C2988      C2989   1.407       .  A
C2989      C2990   1.409       .  A
C2989      H2999   1.083       .  S
C2990      H3000   1.080       .  S
C3001      C3002   1.405       .  A
C3001      C3006   1.410       .  A
C3002      C3003   1.397       .  A
C3002      H3015   1.083       .  S
C3003      C3004   1.405       .  A
C3003      H3016   1.083       .  S
C3004      C3005   1.410       .  A
C3004      C3007   1.496       .  S
C3005      C3006   1.406       .  A
C3005      H3017   1.080       .  S
C3006      H3018   1.083       .  S
C3007      C3008   1.351       .  D
C3007      H3019   1.085       .  S
C3008      C3009   1.495       .  S
C3008      H3020   1.083       .  S
C3009      C3010   1.406       .  A
C3009      C3014   1.408       .  A
C3010      C3011   1.403       .  A
C3010      H3021   1.083       .  S
C3011      C3012   1.406       .  A
C3011      H3022   1.083       .  S
C3012      C3013   1.406       .  A
C3013      C3014   1.398       .  A
C3013      H3023   1.083       .  S
C3014      H3024   1.081       .  S
