geometry optimzed in LAMMPS
_audit_creation_date              2020-11-30 
_audit_creation_method            'lammps2cif' 
_symmetry_space_group_name_H-M    'P1' 
_symmetry_Int_Tables_number       1 
_symmetry_cell_setting            triclinic 
loop_ 
_symmetry_equiv_pos_as_xyz 
  x,y,z 
_cell_length_a                    33.87026017 
_cell_length_b                    33.63134564682373 
_cell_length_c                    50.440068419066144 
_cell_angle_alpha                 91.62775680911668 
_cell_angle_beta                  88.3887135263334 
_cell_angle_gamma                 121.94436561058409 
loop_ 
_atom_site_label 
_atom_site_type_symbol 
_atom_site_fract_x 
_atom_site_fract_y 
_atom_site_fract_z 
_atom_site_charge 
C1          C  0.33077820  0.16540324  0.02731839     0.30300
C2          C  0.33742086  0.15934006  0.47399477     0.30300
C3          C  0.35497410  0.14003620  0.01697510    -0.05900
C4          C  0.28441791  0.14159080  0.01261835    -0.06700
C5          C  0.35913667  0.21313243  0.01316898    -0.06500
C6          C  0.35761487  0.13537457  0.48960104    -0.05900
C7          C  0.28818217  0.13609635  0.48571630    -0.06700
C8          C  0.36339890  0.20877612  0.48602901    -0.06500
C9          C  0.37786549  0.10894997  0.48549040    -0.31900
N10         N  0.38922277  0.10053865  0.50930771     0.14600
C11         C  0.37557622  0.11923797  0.02870245    -0.31900
H12         H  0.37982949  0.11729411  0.04972322     0.16500
C13         C  0.24419260  0.11228444  0.47569965    -0.30900
N14         N  0.21369354  0.10590888  0.99548132     0.13300
C15         C  0.23776226  0.12441303  0.01822215    -0.30900
C16         C  0.38945311  0.25250561  0.47570651    -0.31200
N17         N  0.39994330  0.28447479  0.99542916     0.13800
H18         H  0.39832192  0.26018448  0.45494785     0.16400
C19         C  0.38114558  0.26115390  0.01848720    -0.31200
H20         H  0.38274171  0.27801280  0.03735812     0.16400
H21         H  0.22255248  0.12493429  0.03728202     0.16400
H22         H  0.38340995  0.09525198  0.46714565     0.16500
H23         H  0.23512992  0.10210801  0.45515103     0.16400
C24         C  0.33010964  0.16488518  0.27704716     0.30300
C25         C  0.33524898  0.15504886  0.22389479     0.30300
C26         C  0.35093066  0.13589794  0.26724096    -0.05900
C27         C  0.28298916  0.14080529  0.26270113    -0.06700
C28         C  0.35820526  0.21131145  0.26190922    -0.06500
C29         C  0.35527737  0.13219408  0.24002744    -0.05900
C30         C  0.28651875  0.13519625  0.23570522    -0.06700
C31         C  0.36245385  0.20571180  0.23493530    -0.06500
C32         C  0.38080465  0.11136742  0.23588943    -0.31900
N33         N  0.38821357  0.09917343  0.25974113     0.14600
C34         C  0.37043665  0.11404223  0.27907956    -0.31900
H35         H  0.37300767  0.11062273  0.30014023     0.16500
C36         C  0.24300155  0.11385135  0.22531240    -0.30900
N37         N  0.21250719  0.10719853  0.24507656     0.13300
C38         C  0.23628596  0.12444907  0.26801492    -0.30900
C39         C  0.38879831  0.24959440  0.22435687    -0.31200
N40         N  0.39818314  0.28208013  0.24369060     0.13800
H41         H  0.39890619  0.25721602  0.20371857     0.16400
C42         C  0.37894898  0.25918184  0.26677158    -0.31200
H43         H  0.37988197  0.27598689  0.28556573     0.16400
H44         H  0.22069147  0.12558351  0.28680630     0.16400
H45         H  0.39405838  0.10625711  0.21718143     0.16500
H46         H  0.23419461  0.10448239  0.20466106     0.16400
C47         C  0.16487386  0.08443715  0.99132478     0.42800
N48         N  0.10448544  0.06456065  0.46863904     0.01700
C49         C  0.39186221  0.02638181  0.50931882    -0.06200
H50         H  0.42753862  0.43545099  0.06431020     0.07100
C51         C  0.44283765  0.35416829  0.46498384    -0.06600
Co52       Co  0.03053248  0.06835230  0.00041707     0.74200
N53         N  0.47302875  0.48153459  0.03330861    -0.25800
Co54       Co  0.43041412  0.46127672  0.49855040     0.74100
C55         C  0.42559644  0.33406276  0.49106844     0.42900
N56         N  0.02596708  0.44525744  0.42867747     0.01300
N57         N  0.43378485  0.40188687  0.49011005     0.01400
N58         N  0.45914758  0.09718765  0.51018794    -0.46600
H59         H  0.13297234  0.09716510  0.02920140     0.07100
N60         N  0.51163139  0.02355221  0.03442593     0.01700
N61         N  0.38833522  0.44436789  0.46520739     0.01400
C62         C  0.32966110  0.42868678  0.44191124     0.43000
N63         N  0.06455257  0.48696324  0.42928261    -0.25200
C64         C  0.05087468  0.15448026  0.46889656    -0.06100
N65         N  0.14663421  0.07160137  0.46700700    -0.46300
N66         N  0.34728216  0.43997815  0.46643622    -0.46500
C67         C  0.06900553  0.17461364  0.44284998     0.42800
N68         N  0.46679061  0.06281374  0.50579155     0.01600
N69         N  0.01923675  0.02610200  0.40066894    -0.25200
N70         N  0.09354412  0.07208196  0.49295129    -0.25700
N71         N  0.48067530  0.48410418  0.39965157     0.01300
H72         H  0.06417929  0.07216446  0.36949791     0.07200
H73         H  0.36128726  0.41522364  0.40414796     0.07200
N74         N  0.42812686  0.02121303  0.50514357    -0.25800
N75         N  0.44594490  0.39534176  0.46595400    -0.25400
N76         N  0.05847578  0.10586535  0.44378349     0.01700
C77         C  0.49575179  0.50268954  0.07656978     0.43000
C78         C  0.10113525  0.48199735  0.42621694    -0.06600
N79         N  0.39924904  0.43662677  0.44094796    -0.25400
H80         H  0.44815712  0.33859435  0.44728424     0.07200
N81         N  0.02557907  0.03729673  0.05953273    -0.46600
H82         H  0.13738871  0.50983200  0.42674053     0.07200
C83         C  0.49586967  0.00471269  0.35746792     0.42900
C84         C  0.13014345  0.08549370  0.00875569    -0.06100
Co85       Co  0.06194859  0.04670636  0.43547056     0.73800
N86         N  0.03394937  0.41088436  0.42545216    -0.46300
C87         C  0.41268892  0.07655031  0.51338352     0.43100
N88         N  0.07329690  0.14265601  0.42831075    -0.46300
Co89       Co  0.46199076  0.43968271  0.43365110     0.73900
C90         C  0.36369722  0.42572318  0.42479626    -0.06600
C91         C  0.46070619  0.46573619  0.05862801    -0.06200
N92         N  0.04645250  0.11268116  0.46793923    -0.25700
N93         N  0.42021578  0.36537389  0.00564692    -0.46500
H94         H  0.35554568  0.99867192  0.50909267     0.07200
C95         C  0.03117753  0.04178422  0.37530104    -0.06600
Cl96       Cl  0.49621533  0.00402834  0.46704241    -0.49600
C97         C  0.08055106  0.43178737  0.42305134     0.42900
H98         H  0.04633458  0.17054008  0.48663441     0.07100
N99         N  0.46632207  0.47021914  0.37462082    -0.46300
C100        C  0.16372060  0.08548945  0.24090168     0.42800
N101        N  0.10285783  0.06440130  0.21847983     0.01700
C102        C  0.39062716  0.02484536  0.26003282    -0.06200
H103        H  0.42806823  0.43317199  0.31448009     0.07100
C104        C  0.43964418  0.35231797  0.21311075    -0.06600
Co105      Co  0.02911445  0.06720099  0.25088970     0.74200
N106        N  0.47266381  0.47973039  0.28335937    -0.25800
Co107      Co  0.42951094  0.45979955  0.24867074     0.74100
C108        C  0.42290907  0.33169178  0.23912315     0.42900
N109        N  0.02353366  0.44508426  0.17757128     0.01300
N110        N  0.43296987  0.40046689  0.23937528     0.01400
N111        N  0.45793483  0.09563734  0.26096941    -0.46600
H112        H  0.13168194  0.09723033  0.27900078     0.07100
N113        N  0.51111589  0.02186758  0.28447764     0.01700
N114        N  0.38706170  0.44323864  0.21537646     0.01400
C115        C  0.32737381  0.42504267  0.19237524     0.43000
N116        N  0.06256225  0.48643898  0.17852351    -0.25200
C117        C  0.04736652  0.15369416  0.22053507    -0.06100
N118        N  0.14534353  0.07238324  0.21661631    -0.46300
N119        N  0.34515396  0.43677425  0.21689079    -0.46500
C120        C  0.06330571  0.17418796  0.19439724     0.42800
N121        N  0.46549005  0.06119165  0.25674278     0.01600
N122        N  0.01749745  0.02720661  0.15072736    -0.25200
N123        N  0.09198749  0.07151926  0.24289847    -0.25700
N124        N  0.47900947  0.48518146  0.14948717     0.01300
H125        H  0.06282413  0.07379154  0.11983896     0.07200
H126        H  0.35951617  0.41314990  0.15440681     0.07200
N127        N  0.42687410  0.01956894  0.25598336    -0.25800
N128        N  0.44430495  0.39426229  0.21489871    -0.25400
N129        N  0.05599225  0.10634551  0.19460307     0.01700
C130        C  0.49626367  0.50067741  0.32659773     0.43000
C131        C  0.09831322  0.48001045  0.17523466    -0.06600
N132        N  0.39810640  0.43644202  0.19093814    -0.25400
H133        H  0.44352467  0.33668779  0.19498502     0.07200
N134        N  0.02555661  0.03544063  0.30952197    -0.46600
H135        H  0.13483596  0.50701859  0.17611133     0.07200
C136        C  0.99475013  0.00651508  0.10741591     0.42900
C137        C  0.12881070  0.08552816  0.25856046    -0.06100
Co138      Co  0.06017692  0.04701090  0.18543358     0.73800
N139        N  0.03016838  0.40993424  0.17381257    -0.46300
C140        C  0.41155373  0.07513843  0.26402528     0.43100
N141        N  0.06861462  0.14308919  0.17939099    -0.46300
Co142      Co  0.46039016  0.43986308  0.18311835     0.73900
C143        C  0.36205800  0.42414084  0.17497033    -0.06600
C144        C  0.46097897  0.46369474  0.30869165    -0.06200
N145        N  0.04435942  0.11245333  0.21902567    -0.25700
N146        N  0.41883565  0.36319415  0.25439286    -0.46500
H147        H  0.35428912  0.99724350  0.25941454     0.07200
C148        C  0.02972038  0.04335628  0.12545703    -0.06600
Cl149      Cl  0.49484289  0.00347235  0.21704558    -0.49600
C150        C  0.07641857  0.42938835  0.17138698     0.42900
H151        H  0.04268873  0.16908953  0.23852836     0.07100
N152        N  0.46503783  0.47170804  0.12436674    -0.46300
C153        C  0.16205311  0.34285670  0.40653150     0.30300
C154        C  0.15747957  0.34915796  0.46003314     0.30300
C155        C  0.13820649  0.36828262  0.41755792    -0.05900
C156        C  0.13626476  0.29548286  0.42084694    -0.06700
C157        C  0.20955469  0.36888964  0.42081094    -0.06500
C158        C  0.13562761  0.37187974  0.44501136    -0.05900
C159        C  0.13294899  0.29985905  0.44798445    -0.06700
C160        C  0.20635407  0.37426212  0.44785498    -0.06500
C161        C  0.11537416  0.39798223  0.45005944    -0.31900
N162        N  0.10434202  0.40792270  0.42654987     0.14600
C163        C  0.11847084  0.39056145  0.40659061    -0.31900
H164        H  0.11453303  0.39385707  0.38568862     0.16500
C165        C  0.10773850  0.25615319  0.45840553    -0.30900
N166        N  0.09642321  0.22419980  0.43861508     0.13300
C167        C  0.11452343  0.24756293  0.41547351    -0.30900
C168        C  0.25044422  0.40082485  0.45745976    -0.31200
N169        N  0.28094677  0.40782123  0.43760713     0.13800
H170        H  0.25962388  0.41168708  0.47793000     0.16400
C171        C  0.25668421  0.38813671  0.41503636    -0.31200
H172        H  0.27213037  0.38714425  0.39615467     0.16400
H173        H  0.11149366  0.23096403  0.39631773     0.16400
H174        H  0.10977324  0.41012787  0.46901894     0.16500
H175        H  0.09918103  0.24845960  0.47919218     0.16400
C176        C  0.16137588  0.34264367  0.15668999     0.30300
C177        C  0.15582172  0.35113109  0.20998391     0.30300
C178        C  0.13699377  0.36830973  0.16678007    -0.05900
C179        C  0.13216754  0.29500613  0.17151205    -0.06700
C180        C  0.20775365  0.36685270  0.17114091    -0.06500
C181        C  0.13430352  0.37293589  0.19409388    -0.05900
C182        C  0.12937238  0.30043039  0.19884934    -0.06700
C183        C  0.20423825  0.37157802  0.19804042    -0.06500
C184        C  0.10884599  0.39374759  0.19885746    -0.31900
N185        N  0.09845429  0.40380502  0.17521544     0.14600
C186        C  0.11389425  0.38712272  0.15552542    -0.31900
H187        H  0.10877478  0.38887449  0.13461343     0.16500
C188        C  0.10138935  0.25673747  0.20948610    -0.30900
N189        N  0.08847440  0.22397914  0.18995317     0.13300
C190        C  0.10559603  0.24652896  0.16658725    -0.30900
C191        C  0.24791432  0.39379691  0.20819006    -0.31200
N192        N  0.27854789  0.40261885  0.18812319     0.13800
H193        H  0.25679809  0.40254263  0.22888355     0.16400
C194        C  0.25464312  0.38618982  0.16511810    -0.31200
H195        H  0.27000129  0.38826825  0.14570537     0.16400
H196        H  0.09776861  0.22811986  0.14774718     0.16400
H197        H  0.09808090  0.40069995  0.21792089     0.16500
H198        H  0.09182385  0.24928413  0.23019168     0.16400
C199        C  0.16928873  0.39586020  0.28177268    -0.11100
C200        C  0.17078618  0.36001081  0.29400780     0.15500
C201        C  0.17312557  0.32572738  0.27908261     0.02400
C202        C  0.16757366  0.32427645  0.25215423    -0.15400
C203        C  0.15947036  0.35619486  0.23959573    -0.10200
C204        C  0.16765944  0.39650407  0.25433361     0.09100
C205        C  0.16818787  0.35755717  0.32240043     0.10100
S206        S  0.18309138  0.28303430  0.29318348    -0.24600
H207        H  0.17161959  0.29882266  0.24082276     0.20400
S208        S  0.18459780  0.45249929  0.24060074    -0.30300
H209        H  0.17161125  0.42442405  0.29361994     0.10700
C210        C  0.20560796  0.38964041  0.33783711     0.03900
C211        C  0.20195062  0.38361065  0.36493813    -0.12600
C212        C  0.16332694  0.34410925  0.37680506    -0.08200
C213        C  0.12366562  0.31488136  0.36095292     0.07300
C214        C  0.12749809  0.32115729  0.33379891    -0.13300
S215        S  0.25811566  0.43767480  0.32312449    -0.30300
H216        H  0.22855795  0.41170849  0.37672577     0.11600
S217        S  0.06580433  0.27196519  0.37281509    -0.27400
H218        H  0.09814850  0.29805220  0.32133259     0.08800
H219        H  0.20844795  0.44922193  0.21829952     0.27300
H220        H  0.28400149  0.45444397  0.34655032     0.22100
H221        H  0.06589427  0.29542213  0.39617690     0.27400
H222        H  0.20964128  0.31123069  0.31467253     0.16200
C223        C  0.17493293  0.38232783  0.08583659    -0.11100
C224        C  0.15425318  0.33890608  0.07294820     0.15500
C225        C  0.14555905  0.29895910  0.08633209     0.02400
C226        C  0.15496475  0.30300792  0.11306123    -0.15400
C227        C  0.16778956  0.34441369  0.12716161    -0.10200
C228        C  0.18322121  0.38625244  0.11275514     0.09100
C229        C  0.15181001  0.33884170  0.04452842     0.10100
S230        S  0.12276426  0.24222839  0.07048784    -0.24600
H231        H  0.15261461  0.27369605  0.12257767     0.20400
S232        S  0.21312747  0.44602578  0.12582971    -0.30300
H233        H  0.18539610  0.41357774  0.07462358     0.10700
C234        C  0.12143274  0.34827410  0.03195038     0.03900
C235        C  0.12383721  0.35142005  0.00448930    -0.12600
C236        C  0.15671457  0.34633928  0.48967213    -0.08200
C237        C  0.18379776  0.33172129  0.50290713     0.07300
C238        C  0.18264570  0.33109420  0.03015915    -0.13300
S239        S  0.07881350  0.35461971  0.05076907    -0.30300
H240        H  0.09798730  0.35480901  0.49479808     0.11600
S241        S  0.21978323  0.31116540  0.48827475    -0.27400
H242        H  0.20525650  0.32306383  0.04046382     0.08800
H243        H  0.21890111  0.43991221  0.15231083     0.27300
H244        H  0.06306946  0.36861889  0.02953023     0.22100
H245        H  0.20147332  0.29726497  0.46293373     0.27400
H246        H  0.09744778  0.24824775  0.05106340     0.16200
C247        C  0.31057883  0.17460854  0.40365524    -0.11100
C248        C  0.33202933  0.15518930  0.38938003     0.15500
C249        C  0.35871924  0.14090882  0.40190452     0.02400
C250        C  0.36262006  0.14567949  0.42916893    -0.15400
C251        C  0.33758454  0.16094165  0.44429302    -0.10200
C252        C  0.31341578  0.17876800  0.43089269     0.09100
C253        C  0.33114465  0.15702726  0.36107991     0.10100
S254        S  0.38906609  0.11721285  0.38420013    -0.24600
H255        H  0.38672443  0.13897512  0.43797371     0.20400
S256        S  0.28543008  0.20837378  0.44515001    -0.30300
H257        H  0.29220845  0.18769649  0.39322066     0.09100
C258        C  0.29055978  0.12690239  0.34726710     0.03900
C259        C  0.29113568  0.13139651  0.32011074    -0.12600
C260        C  0.33057000  0.16723614  0.30667434    -0.08200
C261        C  0.37248367  0.19557225  0.32107702     0.07300
C262        C  0.37132927  0.19118587  0.34826193    -0.13300
S263        S  0.23898886  0.08116562  0.36396387    -0.30300
H264        H  0.26177184  0.10414619  0.30948444     0.11600
S265        S  0.43003477  0.23505356  0.30731719    -0.27400
H266        H  0.40256871  0.21349979  0.35957318     0.08800
H267        H  0.29513167  0.21220643  0.47205540     0.27300
H268        H  0.20873815  0.06866748  0.34248468     0.22100
H269        H  0.42736555  0.20837357  0.28489086     0.27400
H270        H  0.35807311  0.09751380  0.36293827     0.16200
C271        C  0.33147159  0.11809351  0.15128723    -0.11100
C272        C  0.32827844  0.15358967  0.13975875     0.15500
C273        C  0.31966910  0.18332839  0.15529149     0.02400
C274        C  0.32246612  0.18226607  0.18229907    -0.15400
C275        C  0.33242784  0.15125355  0.19430011    -0.10200
C276        C  0.32944658  0.11412312  0.17864539     0.09100
C277        C  0.33017006  0.15668392  0.11139420     0.10100
S278        S  0.30398980  0.22240508  0.14199777    -0.24600
H279        H  0.31529578  0.20515537  0.19416629     0.20400
S280        S  0.31196398  0.05696225  0.19071038    -0.30300
H281        H  0.33244658  0.09176716  0.13885896     0.10700
C282        C  0.36527885  0.19681498  0.09865872     0.03900
C283        C  0.36320228  0.19947582  0.07145833    -0.12600
C284        C  0.32696095  0.16263288  0.05683216    -0.08200
C285        C  0.29488960  0.11986055  0.06999199     0.07300
C286        C  0.29550750  0.11885879  0.09724384    -0.13300
S287        S  0.41396898  0.24329390  0.11677970    -0.30300
H288        H  0.39212420  0.22883224  0.06164005     0.11600
S289        S  0.25438219  0.06332990  0.05485997    -0.27400
H290        H  0.26969774  0.08750875  0.10758868     0.08800
H291        H  0.28492932  0.05772089  0.21211465     0.27300
H292        H  0.43212866  0.27590766  0.09614531     0.22100
H293        H  0.28054348  0.06587464  0.03234632     0.27400
H294        H  0.28031638  0.19414287  0.11985318     0.16200
C295        C  0.33077815  0.16540325  0.52731843     0.30300
C296        C  0.33742084  0.15933999  0.97399473     0.30300
C297        C  0.35497404  0.14003618  0.51697516    -0.05900
C298        C  0.28441792  0.14159090  0.51261833    -0.06700
C299        C  0.35913667  0.21313245  0.51316904    -0.06500
C300        C  0.35761485  0.13537451  0.98960099    -0.05900
C301        C  0.28818215  0.13609630  0.98571630    -0.06700
C302        C  0.36339886  0.20877608  0.98602895    -0.06500
C303        C  0.37786523  0.10894969  0.98549036    -0.31900
N304        N  0.38922252  0.10053838  0.00930768     0.14600
C305        C  0.37557626  0.11923801  0.52870251    -0.31900
H306        H  0.37982950  0.11729409  0.54972328     0.16500
C307        C  0.24419256  0.11228428  0.97569968    -0.30900
N308        N  0.21369363  0.10590924  0.49548125     0.13300
C309        C  0.23776231  0.12441331  0.51822211    -0.30900
C310        C  0.38945302  0.25250554  0.97570642    -0.31200
N311        N  0.39994337  0.28447485  0.49542926     0.13800
H312        H  0.39832172  0.26018443  0.95494773     0.16400
C313        C  0.38114557  0.26115391  0.51848728    -0.31200
H314        H  0.38274166  0.27801276  0.53735821     0.16400
H315        H  0.22255253  0.12493454  0.53728195     0.16400
H316        H  0.38340955  0.09525155  0.96714560     0.16500
H317        H  0.23512989  0.10210789  0.95515109     0.16400
C318        C  0.33010961  0.16488507  0.77704722     0.30300
C319        C  0.33524889  0.15504885  0.72389485     0.30300
C320        C  0.35093063  0.13589785  0.76724097    -0.05900
C321        C  0.28298913  0.14080521  0.76270122    -0.06700
C322        C  0.35820522  0.21131138  0.76190931    -0.06500
C323        C  0.35527733  0.13219404  0.74002744    -0.05900
C324        C  0.28651868  0.13519620  0.73570532    -0.06700
C325        C  0.36245376  0.20571177  0.73493539    -0.06500
C326        C  0.38080460  0.11136741  0.73588939    -0.31900
N327        N  0.38821354  0.09917338  0.75974107     0.14600
C328        C  0.37043665  0.11404215  0.77907953    -0.31900
H329        H  0.37300772  0.11062261  0.80014020     0.16500
C330        C  0.24300147  0.11385131  0.72531251    -0.30900
N331        N  0.21250714  0.10719852  0.74507669     0.13300
C332        C  0.23628595  0.12444905  0.76801504    -0.30900
C333        C  0.38879801  0.24959439  0.72435694    -0.31200
N334        N  0.39818285  0.28208011  0.74369068     0.13800
H335        H  0.39890575  0.25721600  0.70371865     0.16400
C336        C  0.37894886  0.25918178  0.76677168    -0.31200
H337        H  0.37988191  0.27598680  0.78556585     0.16400
H338        H  0.22069149  0.12558350  0.78680643     0.16400
H339        H  0.39405837  0.10625713  0.71718133     0.16500
H340        H  0.23419451  0.10448235  0.70466119     0.16400
C341        C  0.16487396  0.08443751  0.49132477     0.42800
N342        N  0.10448547  0.06456063  0.96863899     0.01700
C343        C  0.39186210  0.02638165  0.00931875    -0.06200
H344        H  0.42753860  0.43545095  0.56431030     0.07100
C345        C  0.44283754  0.35416829  0.96498376    -0.06600
Co346      Co  0.03053248  0.06835242  0.50041706     0.74200
N347        N  0.47302869  0.48153453  0.53330866    -0.25800
Co348      Co  0.43041414  0.46127680  0.99855041     0.74100
C349        C  0.42559615  0.33406266  0.99106832     0.42900
N350        N  0.02596715  0.44525756  0.92867744     0.01300
N351        N  0.43378478  0.40188686  0.99011004     0.01400
N352        N  0.45914738  0.09718750  0.01018801    -0.46600
H353        H  0.13297246  0.09716556  0.52920145     0.07100
N354        N  0.51163127  0.02355207  0.53442592     0.01700
N355        N  0.38833518  0.44436799  0.96520744     0.01400
C356        C  0.32966121  0.42868710  0.94191121     0.43000
N357        N  0.06455264  0.48696341  0.92928255    -0.25200
C358        C  0.05087492  0.15448025  0.96889659    -0.06100
N359        N  0.14663421  0.07160128  0.96700699    -0.46300
N360        N  0.34728223  0.43997841  0.96643623    -0.46500
C361        C  0.06900589  0.17461371  0.94285004     0.42800
N362        N  0.46679052  0.06281371  0.00579154     0.01600
N363        N  0.01923688  0.02610199  0.90066892    -0.25200
N364        N  0.09354408  0.07208181  0.99295126    -0.25700
N365        N  0.48067528  0.48410426  0.89965160     0.01300
H366        H  0.06417948  0.07216445  0.86949786     0.07200
H367        H  0.36128745  0.41522405  0.90414791     0.07200
N368        N  0.42812680  0.02121294  0.00514351    -0.25800
N369        N  0.44594492  0.39534183  0.96595401    -0.25400
N370        N  0.05847587  0.10586532  0.94378348     0.01700
C371        C  0.49575178  0.50268955  0.57656984     0.43000
C372        C  0.10113533  0.48199754  0.92621699    -0.06600
N373        N  0.39924905  0.43662686  0.94094799    -0.25400
H374        H  0.44815706  0.33859442  0.94728415     0.07200
N375        N  0.02557910  0.03729689  0.55953278    -0.46600
H376        H  0.13738886  0.50983231  0.92674065     0.07200
C377        C  0.49586953  0.00471261  0.85746791     0.42900
C378        C  0.13014353  0.08549399  0.50875569    -0.06100
Co379      Co  0.06194863  0.04670634  0.93547053     0.73800
N380        N  0.03394949  0.41088450  0.92545221    -0.46300
C381        C  0.41268870  0.07655012  0.01338356     0.43100
N382        N  0.07329720  0.14265608  0.92831078    -0.46300
Co383      Co  0.46199078  0.43968282  0.93365113     0.73900
C384        C  0.36369733  0.42572346  0.92479628    -0.06600
C385        C  0.46070616  0.46573617  0.55862807    -0.06200
N386        N  0.04645254  0.11268107  0.96793922    -0.25700
N387        N  0.42021610  0.36537405  0.50564701    -0.46500
H388        H  0.35554561  0.99867179  0.00909262     0.07200
C389        C  0.03117764  0.04178410  0.87530102    -0.06600
Cl390      Cl  0.49621536  0.00402833  0.96704245    -0.49600
C391        C  0.08055120  0.43178754  0.92305143     0.42900
H392        H  0.04633489  0.17054006  0.98663447     0.07100
N393        N  0.46632211  0.47021915  0.87462085    -0.46300
C394        C  0.16372054  0.08548949  0.74090181     0.42800
N395        N  0.10285781  0.06440135  0.71847993     0.01700
C396        C  0.39062712  0.02484531  0.76003287    -0.06200
H397        H  0.42806838  0.43317222  0.81448007     0.07100
C398        C  0.43964407  0.35231804  0.71311085    -0.06600
Co399      Co  0.02911439  0.06720097  0.75088975     0.74200
N400        N  0.47266384  0.47973049  0.78335934    -0.25800
Co401      Co  0.42951092  0.45979967  0.74867075     0.74100
C402        C  0.42290878  0.33169178  0.73912322     0.42900
N403        N  0.02353372  0.44508430  0.67757128     0.01300
N404        N  0.43296975  0.40046698  0.73937535     0.01400
N405        N  0.45793481  0.09563732  0.76096933    -0.46600
H406        H  0.13168168  0.09723027  0.77900089     0.07100
N407        N  0.51111588  0.02186754  0.78447757     0.01700
N408        N  0.38706166  0.44323880  0.71537649     0.01400
C409        C  0.32737380  0.42504287  0.69237524     0.43000
N410        N  0.06256229  0.48643902  0.67852345    -0.25200
C411        C  0.04736652  0.15369422  0.72053516    -0.06100
N412        N  0.14534355  0.07238340  0.71661642    -0.46300
N413        N  0.34515394  0.43677441  0.71689082    -0.46500
C414        C  0.06330578  0.17418808  0.69439734     0.42800
N415        N  0.46549002  0.06119161  0.75674278     0.01600
N416        N  0.01749748  0.02720669  0.65072744    -0.25200
N417        N  0.09198740  0.07151922  0.74289856    -0.25700
N418        N  0.47900950  0.48518154  0.64948724     0.01300
H419        H  0.06282421  0.07379159  0.61983901     0.07200
H420        H  0.35951613  0.41314986  0.65440678     0.07200
N421        N  0.42687407  0.01956890  0.75598341    -0.25800
N422        N  0.44430491  0.39426237  0.71489879    -0.25400
N423        N  0.05599226  0.10634559  0.69460315     0.01700
C424        C  0.49626369  0.50067751  0.82659771     0.43000
C425        C  0.09831324  0.48001047  0.67523451    -0.06600
N426        N  0.39810636  0.43644212  0.69093816    -0.25400
H427        H  0.44352470  0.33668786  0.69498511     0.07200
N428        N  0.02555657  0.03544057  0.80952194    -0.46600
H429        H  0.13483596  0.50701862  0.67611117     0.07200
C430        C  0.99475018  0.00651517  0.60741597     0.42900
C431        C  0.12881058  0.08552814  0.75856059    -0.06100
Co432      Co  0.06017692  0.04701095  0.68543367     0.73800
N433        N  0.03016841  0.40993428  0.67381246    -0.46300
C434        C  0.41155372  0.07513841  0.76402520     0.43100
N435        N  0.06861468  0.14308930  0.67939110    -0.46300
Co436      Co  0.46039016  0.43986319  0.68311842     0.73900
C437        C  0.36205797  0.42414091  0.67497039    -0.06600
C438        C  0.46097895  0.46369483  0.80869164    -0.06200
N439        N  0.04435939  0.11245336  0.71902574    -0.25700
N440        N  0.41883538  0.36319419  0.75439291    -0.46500
H441        H  0.35428908  0.99724350  0.75941450     0.07200
C442        C  0.02972044  0.04335633  0.62545710    -0.06600
Cl443      Cl  0.49484288  0.00347235  0.71704551    -0.49600
C444        C  0.07641858  0.42938837  0.67138672     0.42900
H445        H  0.04268877  0.16908954  0.73852846     0.07100
N446        N  0.46503784  0.47170809  0.62436680    -0.46300
C447        C  0.16205317  0.34285675  0.90653152     0.30300
C448        C  0.15747966  0.34915803  0.96003317     0.30300
C449        C  0.13820655  0.36828269  0.91755795    -0.05900
C450        C  0.13626483  0.29548295  0.92084698    -0.06700
C451        C  0.20955476  0.36888968  0.92081096    -0.06500
C452        C  0.13562764  0.37187976  0.94501139    -0.05900
C453        C  0.13294908  0.29985913  0.94798447    -0.06700
C454        C  0.20635417  0.37426223  0.94785499    -0.06500
C455        C  0.11537419  0.39798226  0.95005950    -0.31900
N456        N  0.10434213  0.40792282  0.92654991     0.14600
C457        C  0.11847087  0.39056149  0.90659065    -0.31900
H458        H  0.11453299  0.39385703  0.88568867     0.16500
C459        C  0.10773875  0.25615325  0.95840558    -0.30900
N460        N  0.09642354  0.22419988  0.93861511     0.13300
C461        C  0.11452372  0.24756303  0.91547355    -0.30900
C462        C  0.25044434  0.40082517  0.95745973    -0.31200
N463        N  0.28094689  0.40782158  0.93760711     0.13800
H464        H  0.25962401  0.41168748  0.97792996     0.16400
C465        C  0.25668433  0.38813694  0.91503632    -0.31200
H466        H  0.27213045  0.38714458  0.89615472     0.16400
H467        H  0.11149412  0.23096422  0.89631780     0.16400
H468        H  0.10977329  0.41012788  0.96901893     0.16500
H469        H  0.09918138  0.24845966  0.97919214     0.16400
C470        C  0.16137592  0.34264370  0.65668998     0.30300
C471        C  0.15582174  0.35113127  0.70998390     0.30300
C472        C  0.13699373  0.36830970  0.66678000    -0.05900
C473        C  0.13216769  0.29500622  0.67151209    -0.06700
C474        C  0.20775366  0.36685278  0.67114092    -0.06500
C475        C  0.13430345  0.37293592  0.69409381    -0.05900
C476        C  0.12937252  0.30043055  0.69884938    -0.06700
C477        C  0.20423827  0.37157821  0.69804044    -0.06500
C478        C  0.10884588  0.39374762  0.69885730    -0.31900
N479        N  0.09845429  0.40380504  0.67521525     0.14600
C480        C  0.11389427  0.38712267  0.65552528    -0.31900
H481        H  0.10877487  0.38887439  0.63461327     0.16500
C482        C  0.10138946  0.25673767  0.70948615    -0.30900
N483        N  0.08847450  0.22397928  0.68995328     0.13300
C484        C  0.10559622  0.24652905  0.66658733    -0.30900
C485        C  0.24791434  0.39379706  0.70819007    -0.31200
N486        N  0.27854789  0.40261902  0.68812322     0.13800
H487        H  0.25679814  0.40254281  0.72888359     0.16400
C488        C  0.25464310  0.38618985  0.66511812    -0.31200
H489        H  0.27000124  0.38826819  0.64570542     0.16400
H490        H  0.09776883  0.22811994  0.64774731     0.16400
H491        H  0.09808071  0.40069997  0.71792069     0.16500
H492        H  0.09182386  0.24928440  0.73019180     0.16400
C493        C  0.16928806  0.39585997  0.78177274    -0.11100
C494        C  0.17078592  0.36001075  0.79400782     0.15500
C495        C  0.17312573  0.32572758  0.77908259     0.02400
C496        C  0.16757382  0.32427671  0.75215422    -0.15400
C497        C  0.15947036  0.35619504  0.73959573    -0.10200
C498        C  0.16765905  0.39650405  0.75433366     0.09100
C499        C  0.16818769  0.35755711  0.82240044     0.10100
S500        S  0.18309209  0.28303475  0.79318335    -0.24600
H501        H  0.17161987  0.29882304  0.74082272     0.20400
S502        S  0.18459718  0.45249926  0.74060084    -0.30300
H503        H  0.17161025  0.42442360  0.79362006     0.10700
C504        C  0.20560772  0.38964053  0.83783710     0.03900
C505        C  0.20195052  0.38361069  0.86493813    -0.12600
C506        C  0.16332692  0.34410922  0.87680507    -0.08200
C507        C  0.12366561  0.31488120  0.86095294     0.07300
C508        C  0.12749803  0.32115714  0.83379893    -0.13300
S509        S  0.25811521  0.43767511  0.82312440    -0.30300
H510        H  0.22855781  0.41170853  0.87672577     0.11600
S511        S  0.06580440  0.27196483  0.87281516    -0.27400
H512        H  0.09814842  0.29805192  0.82133258     0.08800
H513        H  0.20844740  0.44922201  0.71829962     0.27300
H514        H  0.28400096  0.45444469  0.84655024     0.22100
H515        H  0.06589432  0.29542192  0.89617690     0.27400
H516        H  0.20964153  0.31123101  0.81467255     0.16200
C517        C  0.17493308  0.38232774  0.58583649    -0.11100
C518        C  0.15425330  0.33890593  0.57294815     0.15500
C519        C  0.14555904  0.29895901  0.58633209     0.02400
C520        C  0.15496470  0.30300784  0.61306124    -0.15400
C521        C  0.16778956  0.34441367  0.62716158    -0.10200
C522        C  0.18322124  0.38625236  0.61275507     0.09100
C523        C  0.15180994  0.33884144  0.54452839     0.10100
S524        S  0.12276419  0.24222827  0.57048791    -0.24600
H525        H  0.15261457  0.27369606  0.62257765     0.20400
S526        S  0.21312771  0.44602574  0.62582958    -0.30300
H527        H  0.18539624  0.41357748  0.57462349     0.10700
C528        C  0.12143276  0.34827405  0.53195042     0.03900
C529        C  0.12383722  0.35142006  0.50448934    -0.12600
C530        C  0.15671465  0.34633936  0.98967214    -0.08200
C531        C  0.18379802  0.33172162  0.00290720     0.07300
C532        C  0.18264550  0.33109380  0.53015907    -0.13300
S533        S  0.07881372  0.35462001  0.55076915    -0.30300
H534        H  0.09798723  0.35480885  0.99479801     0.11600
S535        S  0.21978380  0.31116607  0.98827485    -0.27400
H536        H  0.20525625  0.32306332  0.54046367     0.08800
H537        H  0.21890096  0.43991213  0.65231076     0.27300
H538        H  0.06306968  0.36861920  0.52953032     0.22100
H539        H  0.20147358  0.29726524  0.96293392     0.27400
H540        H  0.09744744  0.24824751  0.55106359     0.16200
C541        C  0.31057868  0.17460778  0.90365514    -0.11100
C542        C  0.33202938  0.15518869  0.88938000     0.15500
C543        C  0.35871962  0.14090868  0.90190455     0.02400
C544        C  0.36262042  0.14567951  0.92916897    -0.15400
C545        C  0.33758462  0.16094146  0.94429298    -0.10200
C546        C  0.31341564  0.17876744  0.93089256     0.09100
C547        C  0.33114475  0.15702667  0.86107988     0.10100
S548        S  0.38906664  0.11721282  0.88420022    -0.24600
H549        H  0.38672502  0.13897547  0.93797381     0.20400
S550        S  0.28542968  0.20837304  0.94514971    -0.30300
H551        H  0.29220822  0.18769554  0.89322051     0.09100
C552        C  0.29055979  0.12690196  0.84726708     0.03900
C553        C  0.29113565  0.13139623  0.82011075    -0.12600
C554        C  0.33056994  0.16723594  0.80667438    -0.08200
C555        C  0.37248367  0.19557205  0.82107705     0.07300
C556        C  0.37132937  0.19118529  0.84826192    -0.13300
S557        S  0.23898902  0.08116487  0.86396378    -0.30300
H558        H  0.26177177  0.10414587  0.80948444     0.11600
S559        S  0.43003469  0.23505349  0.80731713    -0.27400
H560        H  0.40256900  0.21349908  0.85957320     0.08800
H561        H  0.29513169  0.21220633  0.97205506     0.27300
H562        H  0.20873816  0.06866708  0.84248470     0.22100
H563        H  0.42736549  0.20837361  0.78489075     0.27400
H564        H  0.35807351  0.09751343  0.86293845     0.16200
C565        C  0.33147109  0.11809352  0.65128726    -0.11100
C566        C  0.32827775  0.15358962  0.63975883     0.15500
C567        C  0.31966863  0.18332841  0.65529163     0.02400
C568        C  0.32246578  0.18226607  0.68229920    -0.15400
C569        C  0.33242759  0.15125358  0.69430018    -0.10200
C570        C  0.32944633  0.11412323  0.67864542     0.09100
C571        C  0.33016943  0.15668390  0.61139427     0.10100
S572        S  0.30398918  0.22240505  0.64199805    -0.24600
H573        H  0.31529546  0.20515537  0.69416648     0.20400
S574        S  0.31196408  0.05696244  0.69071030    -0.30300
H575        H  0.33244612  0.09176732  0.63885905     0.10700
C576        C  0.36527828  0.19681498  0.59865882     0.03900
C577        C  0.36320191  0.19947581  0.57145842    -0.12600
C578        C  0.32696075  0.16263286  0.55683219    -0.08200
C579        C  0.29488943  0.11986047  0.56999197     0.07300
C580        C  0.29550711  0.11885868  0.59724383    -0.13300
S581        S  0.41396835  0.24329388  0.61677982    -0.30300
H582        H  0.39212393  0.22883222  0.56164019     0.11600
S583        S  0.25438216  0.06332987  0.55485986    -0.27400
H584        H  0.26969735  0.08750859  0.60758863     0.08800
H585        H  0.28492940  0.05772087  0.71211462     0.27300
H586        H  0.43212801  0.27590769  0.59614546     0.22100
H587        H  0.28054357  0.06587464  0.53234627     0.27400
H588        H  0.28031576  0.19414288  0.61985346     0.16200
C589        C  0.33077816  0.66540325  0.02731842     0.30300
C590        C  0.33742087  0.65934002  0.47399471     0.30300
C591        C  0.35497403  0.64003615  0.01697512    -0.05900
C592        C  0.28441792  0.64159092  0.01261835    -0.06700
C593        C  0.35913664  0.71313242  0.01316900    -0.06500
C594        C  0.35761481  0.63537447  0.48960099    -0.05900
C595        C  0.28818218  0.63609636  0.48571623    -0.06700
C596        C  0.36339889  0.70877610  0.48602894    -0.06500
C597        C  0.37786530  0.60894977  0.48549036    -0.31900
N598        N  0.38922268  0.60053853  0.50930766     0.14600
C599        C  0.37557639  0.61923811  0.02870244    -0.31900
H600        H  0.37982980  0.61729435  0.04972322     0.16500
C601        C  0.24419259  0.61228432  0.47569961    -0.30900
N602        N  0.21369361  0.60590922  0.99548129     0.13300
C603        C  0.23776229  0.62441323  0.01822214    -0.30900
C604        C  0.38945300  0.75250561  0.47570648    -0.31200
N605        N  0.39994336  0.78447482  0.99542920     0.13800
H606        H  0.39832175  0.76018454  0.45494770     0.16400
C607        C  0.38114550  0.76115388  0.01848726    -0.31200
H608        H  0.38274154  0.77801263  0.03735812     0.16400
H609        H  0.22255249  0.62493440  0.03728200     0.16400
H610        H  0.38340966  0.59525167  0.46714555     0.16500
H611        H  0.23512987  0.60210780  0.45515099     0.16400
C612        C  0.33010968  0.66488510  0.27704720     0.30300
C613        C  0.33524889  0.65504879  0.22389482     0.30300
C614        C  0.35093054  0.63589775  0.26724096    -0.05900
C615        C  0.28298920  0.64080534  0.26270119    -0.06700
C616        C  0.35820535  0.71131135  0.26190929    -0.06500
C617        C  0.35527723  0.63219394  0.24002744    -0.05900
C618        C  0.28651873  0.63519623  0.23570530    -0.06700
C619        C  0.36245381  0.70571172  0.23493536    -0.06500
C620        C  0.38080467  0.61136751  0.23588936    -0.31900
N621        N  0.38821361  0.59917346  0.25974105     0.14600
C622        C  0.37043659  0.61404207  0.27907951    -0.31900
H623        H  0.37300763  0.61062252  0.30014018     0.16500
C624        C  0.24300151  0.61385128  0.22531244    -0.30900
N625        N  0.21250718  0.60719849  0.24507666     0.13300
C626        C  0.23628599  0.62444911  0.26801498    -0.30900
C627        C  0.38879795  0.74959435  0.22435693    -0.31200
N628        N  0.39818280  0.78208007  0.24369066     0.13800
H629        H  0.39890565  0.75721597  0.20371859     0.16400
C630        C  0.37894884  0.75918172  0.26677168    -0.31200
H631        H  0.37988176  0.77598666  0.28556582     0.16400
H632        H  0.22069159  0.62558356  0.28680636     0.16400
H633        H  0.39405848  0.60625741  0.21718136     0.16500
H634        H  0.23419465  0.60448235  0.20466126     0.16400
C635        C  0.16487393  0.58443740  0.99132475     0.42800
N636        N  0.10448541  0.56456058  0.46863905     0.01700
C637        C  0.39186216  0.52638172  0.50931881    -0.06200
H638        H  0.42753867  0.93545077  0.06431021     0.07100
C639        C  0.44283754  0.85416826  0.46498381    -0.06600
Co640      Co  0.03053248  0.56835243  0.00041706     0.74200
N641        N  0.47302879  0.98153456  0.03330864    -0.25800
Co642      Co  0.43041412  0.96127679  0.49855037     0.74100
C643        C  0.42559614  0.83406273  0.49106840     0.42900
N644        N  0.02596712  0.94525750  0.42867751     0.01300
N645        N  0.43378473  0.90188689  0.49011000     0.01400
N646        N  0.45914752  0.59718758  0.51018794    -0.46600
H647        H  0.13297241  0.59716529  0.02920139     0.07100
N648        N  0.51163134  0.52355217  0.03442590     0.01700
N649        N  0.38833523  0.94436800  0.46520734     0.01400
C650        C  0.32966121  0.92868715  0.44191115     0.43000
N651        N  0.06455257  0.98696330  0.42928259    -0.25200
C652        C  0.05087501  0.65448041  0.46889664    -0.06100
N653        N  0.14663410  0.57160111  0.46700701    -0.46300
N654        N  0.34728227  0.93997842  0.46643616    -0.46500
C655        C  0.06900591  0.67461383  0.44285010     0.42800
N656        N  0.46679056  0.56281368  0.50579155     0.01600
N657        N  0.01923686  0.52610194  0.40066891    -0.25200
N658        N  0.09354414  0.57208194  0.49295130    -0.25700
N659        N  0.48067540  0.98410429  0.39965157     0.01300
H660        H  0.06417932  0.57216437  0.36949788     0.07200
H661        H  0.36128724  0.91522382  0.40414780     0.07200
N662        N  0.42812685  0.52121297  0.50514356    -0.25800
N663        N  0.44594483  0.89534182  0.46595400    -0.25400
N664        N  0.05847589  0.60586543  0.44378351     0.01700
C665        C  0.49575178  0.00268958  0.07656981     0.43000
C666        C  0.10113530  0.98199749  0.42621693    -0.06600
N667        N  0.39924901  0.93662679  0.44094788    -0.25400
H668        H  0.44815701  0.83859442  0.44728432     0.07200
N669        N  0.02557913  0.53729689  0.05953277    -0.46600
H670        H  0.13738876  0.00983217  0.42674061     0.07200
C671        C  0.49586950  0.50471264  0.35746791     0.42900
C672        C  0.13014350  0.58549388  0.00875566    -0.06100
Co673      Co  0.06194860  0.54670632  0.43547057     0.73800
N674        N  0.03394948  0.91088442  0.42545228    -0.46300
C675        C  0.41268888  0.57655024  0.51338352     0.43100
N676        N  0.07329718  0.64265616  0.42831082    -0.46300
Co677      Co  0.46199077  0.93968278  0.43365109     0.73900
C678        C  0.36369724  0.92572337  0.42479621    -0.06600
C679        C  0.46070627  0.96573615  0.05862801    -0.06200
N680        N  0.04645260  0.61268124  0.46793927    -0.25700
N681        N  0.42021602  0.86537401  0.00564700    -0.46500
H682        H  0.35554578  0.49867196  0.50909268     0.07200
C683        C  0.03117763  0.54178410  0.37530101    -0.06600
Cl684      Cl  0.49621525  0.50402822  0.46704241    -0.49600
C685        C  0.08055116  0.93178752  0.42305137     0.42900
H686        H  0.04633500  0.67054033  0.48663462     0.07100
N687        N  0.46632222  0.97021917  0.37462082    -0.46300
C688        C  0.16372053  0.58548937  0.24090174     0.42800
N689        N  0.10285770  0.56440121  0.21847994     0.01700
C690        C  0.39062714  0.52484533  0.26003279    -0.06200
H691        H  0.42806841  0.93317214  0.31448019     0.07100
C692        C  0.43964393  0.85231795  0.21311080    -0.06600
Co693      Co  0.02911441  0.56720100  0.25088981     0.74200
N694        N  0.47266384  0.97973044  0.28335942    -0.25800
Co695      Co  0.42951092  0.95979961  0.24867075     0.74100
C696        C  0.42290877  0.83169175  0.23912318     0.42900
N697        N  0.02353367  0.94508429  0.17757124     0.01300
N698        N  0.43296981  0.90046697  0.23937533     0.01400
N699        N  0.45793484  0.59563731  0.26096936    -0.46600
H700        H  0.13168187  0.59723013  0.27900081     0.07100
N701        N  0.51111589  0.52186762  0.28447761     0.01700
N702        N  0.38706159  0.94323867  0.21537648     0.01400
C703        C  0.32737376  0.92504283  0.19237524     0.43000
N704        N  0.06256224  0.98643896  0.17852343    -0.25200
C705        C  0.04736680  0.65369432  0.22053523    -0.06100
N706        N  0.14534346  0.57238328  0.21661639    -0.46300
N707        N  0.34515386  0.93677429  0.21689080    -0.46500
C708        C  0.06330597  0.67418808  0.19439739     0.42800
N709        N  0.46549005  0.56119165  0.25674275     0.01600
N710        N  0.01749743  0.52720663  0.15072739    -0.25200
N711        N  0.09198738  0.57151911  0.24289858    -0.25700
N712        N  0.47900950  0.98518156  0.14948718     0.01300
H713        H  0.06282416  0.57379152  0.11983894     0.07200
H714        H  0.35951612  0.91315009  0.15440679     0.07200
N715        N  0.42687406  0.51956888  0.25598335    -0.25800
N716        N  0.44430479  0.89426227  0.21489871    -0.25400
N717        N  0.05599213  0.60634547  0.19460317     0.01700
C718        C  0.49626379  0.00067745  0.32659776     0.43000
C719        C  0.09831319  0.98001039  0.17523457    -0.06600
N720        N  0.39810630  0.93644207  0.19093815    -0.25400
H721        H  0.44352456  0.83668772  0.19498501     0.07200
N722        N  0.02555653  0.53544052  0.30952202    -0.46600
H723        H  0.13483585  0.00701847  0.17611121     0.07200
C724        C  0.99475017  0.50651513  0.10741593     0.42900
C725        C  0.12881063  0.58552801  0.25856059    -0.06100
Co726      Co  0.06017685  0.54701087  0.18543365     0.73800
N727        N  0.03016833  0.90993420  0.17381253    -0.46300
C728        C  0.41155373  0.57513842  0.26402515     0.43100
N729        N  0.06861460  0.64308916  0.17939111    -0.46300
Co730      Co  0.46039008  0.93986312  0.18311836     0.73900
C731        C  0.36205793  0.92414095  0.17497033    -0.06600
C732        C  0.46097903  0.96369473  0.30869172    -0.06200
N733        N  0.04435944  0.61245337  0.21902580    -0.25700
N734        N  0.41883561  0.86319428  0.25439292    -0.46500
H735        H  0.35428903  0.49724343  0.25941453     0.07200
C736        C  0.02972039  0.54335631  0.12545705    -0.06600
Cl737      Cl  0.49484286  0.50347238  0.21704555    -0.49600
C738        C  0.07641848  0.92938827  0.17138681     0.42900
H739        H  0.04268902  0.66908968  0.23852852     0.07100
N740        N  0.46503783  0.97170818  0.12436676    -0.46300
C741        C  0.16205315  0.84285680  0.40653152     0.30300
C742        C  0.15747970  0.84915812  0.46003316     0.30300
C743        C  0.13820653  0.86828274  0.41755794    -0.05900
C744        C  0.13626483  0.79548299  0.42084697    -0.06700
C745        C  0.20955476  0.86888975  0.42081093    -0.06500
C746        C  0.13562768  0.87187988  0.44501140    -0.05900
C747        C  0.13294909  0.79985921  0.44798447    -0.06700
C748        C  0.20635419  0.87426233  0.44785498    -0.06500
C749        C  0.11537426  0.89798241  0.45005947    -0.31900
N750        N  0.10434219  0.90792293  0.42654989     0.14600
C751        C  0.11847091  0.89056158  0.40659063    -0.31900
H752        H  0.11453302  0.89385715  0.38568864     0.16500
C753        C  0.10773877  0.75615336  0.45840559    -0.30900
N754        N  0.09642353  0.72419997  0.43861512     0.13300
C755        C  0.11452369  0.74756308  0.41547357    -0.30900
C756        C  0.25044434  0.90082527  0.45745970    -0.31200
N757        N  0.28094689  0.90782168  0.43760710     0.13800
H758        H  0.25962403  0.91168764  0.47793002     0.16400
C759        C  0.25668431  0.88813698  0.41503633    -0.31200
H760        H  0.27213049  0.88714456  0.39615466     0.16400
H761        H  0.11149405  0.73096420  0.39631776     0.16400
H762        H  0.10977327  0.91012803  0.46901897     0.16500
H763        H  0.09918143  0.74845979  0.47919217     0.16400
C764        C  0.16137591  0.84264365  0.15669000     0.30300
C765        C  0.15582173  0.85113123  0.20998391     0.30300
C766        C  0.13699365  0.86830959  0.16678001    -0.05900
C767        C  0.13216771  0.79500618  0.17151210    -0.06700
C768        C  0.20775367  0.86685283  0.17114092    -0.06500
C769        C  0.13430341  0.87293585  0.19409381    -0.05900
C770        C  0.12937256  0.80043050  0.19884938    -0.06700
C771        C  0.20423827  0.87157822  0.19804043    -0.06500
C772        C  0.10884591  0.89374762  0.19885732    -0.31900
N773        N  0.09845419  0.90380492  0.17521525     0.14600
C774        C  0.11389413  0.88712253  0.15552530    -0.31900
H775        H  0.10877472  0.88887425  0.13461327     0.16500
C776        C  0.10138961  0.75673760  0.20948615    -0.30900
N777        N  0.08847467  0.72397924  0.18995326     0.13300
C778        C  0.10559622  0.74652901  0.16658731    -0.30900
C779        C  0.24791432  0.89379709  0.20819006    -0.31200
N780        N  0.27854787  0.90261901  0.18812318     0.13800
H781        H  0.25679809  0.90254281  0.22888356     0.16400
C782        C  0.25464312  0.88618997  0.16511810    -0.31200
H783        H  0.27000130  0.88826839  0.14570537     0.16400
H784        H  0.09776872  0.72811992  0.14774728     0.16400
H785        H  0.09808086  0.90070006  0.21792063     0.16500
H786        H  0.09182408  0.74928430  0.23019173     0.16400
C787        C  0.16928806  0.89586000  0.28177274    -0.11100
C788        C  0.17078590  0.86001080  0.29400784     0.15500
C789        C  0.17312568  0.82572761  0.27908264     0.02400
C790        C  0.16757383  0.82427672  0.25215425    -0.15400
C791        C  0.15947032  0.85619500  0.23959575    -0.10200
C792        C  0.16765896  0.89650399  0.25433367     0.09100
C793        C  0.16818769  0.85755715  0.32240044     0.10100
S794        S  0.18309215  0.78303491  0.29318346    -0.24600
H795        H  0.17162000  0.79882316  0.24082280     0.20400
S796        S  0.18459708  0.95249918  0.24060090    -0.30300
H797        H  0.17161027  0.92442369  0.29362002     0.10700
C798        C  0.20560772  0.88964057  0.33783710     0.03900
C799        C  0.20195050  0.88361078  0.36493813    -0.12600
C800        C  0.16332690  0.84410930  0.37680506    -0.08200
C801        C  0.12366559  0.81488129  0.36095296     0.07300
C802        C  0.12749800  0.82115712  0.33379893    -0.13300
S803        S  0.25811523  0.93767528  0.32312449    -0.30300
H804        H  0.22855772  0.91170856  0.37672573     0.11600
S805        S  0.06580442  0.77196501  0.37281526    -0.27400
H806        H  0.09814845  0.79805190  0.32133263     0.08800
H807        H  0.20844739  0.94922201  0.21829970     0.27300
H808        H  0.28400098  0.95444482  0.34655033     0.22100
H809        H  0.06589435  0.79542212  0.39617700     0.27400
H810        H  0.20964165  0.81123125  0.31467263     0.16200
C811        C  0.17493299  0.88232766  0.08583658    -0.11100
C812        C  0.15425329  0.83890592  0.07294820     0.15500
C813        C  0.14555911  0.79895895  0.08633209     0.02400
C814        C  0.15496469  0.80300773  0.11306125    -0.15400
C815        C  0.16778959  0.84441356  0.12716161    -0.10200
C816        C  0.18322120  0.88625227  0.11275514     0.09100
C817        C  0.15181000  0.83884148  0.04452843     0.10100
S818        S  0.12276410  0.74222819  0.07048785    -0.24600
H819        H  0.15261451  0.77369586  0.12257767     0.20400
S820        S  0.21312760  0.94602563  0.12582969    -0.30300
H821        H  0.18539616  0.91357755  0.07462358     0.10700
C822        C  0.12143273  0.84827396  0.03195041     0.03900
C823        C  0.12383719  0.85141994  0.00448934    -0.12600
C824        C  0.15671477  0.84633942  0.48967216    -0.08200
C825        C  0.18379809  0.83172164  0.50290720     0.07300
C826        C  0.18264549  0.83109375  0.03015912    -0.13300
S827        S  0.07881360  0.85461986  0.05076906    -0.30300
H828        H  0.09798735  0.85480871  0.49479800     0.11600
S829        S  0.21978390  0.81116622  0.48827478    -0.27400
H830        H  0.20525631  0.82306324  0.04046378     0.08800
H831        H  0.21890093  0.93991215  0.15231088     0.27300
H832        H  0.06306984  0.86861938  0.02953024     0.22100
H833        H  0.20147360  0.79726536  0.46293386     0.27400
H834        H  0.09744765  0.74824764  0.05106343     0.16200
C835        C  0.31057863  0.67460773  0.40365506    -0.11100
C836        C  0.33202948  0.65518875  0.38937995     0.15500
C837        C  0.35871977  0.64090886  0.40190452     0.02400
C838        C  0.36262053  0.64567966  0.42916894    -0.15400
C839        C  0.33758464  0.66094154  0.44429293    -0.10200
C840        C  0.31341564  0.67876747  0.43089249     0.09100
C841        C  0.33114490  0.65702666  0.36107984     0.10100
S842        S  0.38906696  0.61721305  0.38420031    -0.24600
H843        H  0.38672502  0.63897574  0.43797373     0.20400
S844        S  0.28542955  0.70837293  0.44514963    -0.30300
H845        H  0.29220802  0.68769534  0.39322041     0.09100
C846        C  0.29056002  0.62690193  0.34726703     0.03900
C847        C  0.29113585  0.63139632  0.32011072    -0.12600
C848        C  0.33057016  0.66723603  0.30667436    -0.08200
C849        C  0.37248389  0.69557207  0.32107703     0.07300
C850        C  0.37132953  0.69118540  0.34826192    -0.13300
S851        S  0.23898907  0.58116503  0.36396371    -0.30300
H852        H  0.26177198  0.60414616  0.30948442     0.11600
S853        S  0.43003498  0.73505364  0.30731720    -0.27400
H854        H  0.40256897  0.71349925  0.35957318     0.08800
H855        H  0.29513176  0.71220639  0.47205496     0.27300
H856        H  0.20873829  0.56866734  0.34248459     0.22100
H857        H  0.42736568  0.70837383  0.28489077     0.27400
H858        H  0.35807392  0.59751356  0.36293850     0.16200
C859        C  0.33147100  0.61809344  0.15128720    -0.11100
C860        C  0.32827777  0.65358963  0.13975882     0.15500
C861        C  0.31966854  0.68332830  0.15529162     0.02400
C862        C  0.32246573  0.68226595  0.18229919    -0.15400
C863        C  0.33242760  0.65125346  0.19430014    -0.10200
C864        C  0.32944627  0.61412308  0.17864535     0.09100
C865        C  0.33016946  0.65668402  0.11139429     0.10100
S866        S  0.30398905  0.72240490  0.14199799    -0.24600
H867        H  0.31529539  0.70515511  0.19416645     0.20400
S868        S  0.31196427  0.55696233  0.19071022    -0.30300
H869        H  0.33244599  0.59176724  0.13885891     0.10700
C870        C  0.36527831  0.69681512  0.09865886     0.03900
C871        C  0.36320195  0.69947590  0.07145844    -0.12600
C872        C  0.32696080  0.66263292  0.05683220    -0.08200
C873        C  0.29488947  0.61986059  0.06999202     0.07300
C874        C  0.29550711  0.61885886  0.09724387    -0.13300
S875        S  0.41396837  0.74329405  0.11677989    -0.30300
H876        H  0.39212397  0.72883229  0.06164019     0.11600
S877        S  0.25438241  0.56332995  0.05485994    -0.27400
H878        H  0.26969730  0.58750875  0.10758868     0.08800
H879        H  0.28492956  0.55772066  0.21211455     0.27300
H880        H  0.43212807  0.77590780  0.09614550     0.22100
H881        H  0.28054364  0.56587485  0.03234625     0.27400
H882        H  0.28031547  0.69414259  0.11985346     0.16200
C883        C  0.33077818  0.66540322  0.52731838     0.30300
C884        C  0.33742085  0.65934006  0.97399473     0.30300
C885        C  0.35497407  0.64003616  0.51697511    -0.05900
C886        C  0.28441793  0.64159086  0.51261828    -0.06700
C887        C  0.35913665  0.71313240  0.51316898    -0.06500
C888        C  0.35761477  0.63537446  0.98960099    -0.05900
C889        C  0.28818218  0.63609645  0.98571630    -0.06700
C890        C  0.36339893  0.70877612  0.98602897    -0.06500
C891        C  0.37786533  0.60894979  0.98549034    -0.31900
N892        N  0.38922275  0.60053860  0.00930767     0.14600
C893        C  0.37557636  0.61923806  0.52870245    -0.31900
H894        H  0.37982975  0.61729426  0.54972322     0.16500
C895        C  0.24419262  0.61228455  0.97569965    -0.30900
N896        N  0.21369358  0.60590898  0.49548123     0.13300
C897        C  0.23776231  0.62441315  0.51822207    -0.30900
C898        C  0.38945319  0.75250561  0.97570651    -0.31200
N899        N  0.39994323  0.78447480  0.49542920     0.13800
H900        H  0.39832212  0.76018454  0.95494774     0.16400
C901        C  0.38114547  0.76115384  0.51848725    -0.31200
H902        H  0.38274151  0.77801261  0.53735814     0.16400
H903        H  0.22255254  0.62493436  0.53728194     0.16400
H904        H  0.38340977  0.59525183  0.96714561     0.16500
H905        H  0.23512998  0.60210819  0.95515110     0.16400
C906        C  0.33010964  0.66488516  0.77704720     0.30300
C907        C  0.33524898  0.65504886  0.72389482     0.30300
C908        C  0.35093058  0.63589784  0.76724099    -0.05900
C909        C  0.28298919  0.64080536  0.76270116    -0.06700
C910        C  0.35820531  0.71131142  0.76190929    -0.06500
C911        C  0.35527729  0.63219400  0.74002747    -0.05900
C912        C  0.28651880  0.63519629  0.73570527    -0.06700
C913        C  0.36245387  0.70571176  0.73493537    -0.06500
C914        C  0.38080467  0.61136748  0.73588942    -0.31900
N915        N  0.38821359  0.59917347  0.75974113     0.14600
C916        C  0.37043656  0.61404213  0.77907956    -0.31900
H917        H  0.37300757  0.61062255  0.80014026     0.16500
C918        C  0.24300165  0.61385142  0.72531237    -0.30900
N919        N  0.21250725  0.60719866  0.74507654     0.13300
C920        C  0.23628598  0.62444922  0.76801489    -0.30900
C921        C  0.38879820  0.74959436  0.72435694    -0.31200
N922        N  0.39818303  0.78208010  0.74369067     0.13800
H923        H  0.39890603  0.75721593  0.70371865     0.16400
C924        C  0.37894894  0.75918181  0.76677165    -0.31200
H925        H  0.37988190  0.77598684  0.78556583     0.16400
H926        H  0.22069144  0.62558360  0.78680627     0.16400
H927        H  0.39405848  0.60625732  0.71718145     0.16500
H928        H  0.23419485  0.60448246  0.70466114     0.16400
C929        C  0.16487387  0.58443710  0.49132479     0.42800
N930        N  0.10448550  0.56456081  0.96863898     0.01700
C931        C  0.39186230  0.52638183  0.00931876    -0.06200
H932        H  0.42753838  0.93545085  0.56431029     0.07100
C933        C  0.44283760  0.85416827  0.96498381    -0.06600
Co934      Co  0.03053251  0.56835242  0.50041707     0.74200
N935        N  0.47302862  0.98153447  0.53330865    -0.25800
Co936      Co  0.43041419  0.96127675  0.99855040     0.74100
C937        C  0.42559635  0.83406276  0.99106844     0.42900
N938        N  0.02596708  0.94525747  0.92867744     0.01300
N939        N  0.43378487  0.90188689  0.99011005     0.01400
N940        N  0.45914762  0.59718768  0.01018801    -0.46600
H941        H  0.13297255  0.59716533  0.52920146     0.07100
N942        N  0.51163129  0.52355212  0.53442593     0.01700
N943        N  0.38833519  0.94436782  0.96520744     0.01400
C944        C  0.32966112  0.92868687  0.94191127     0.43000
N945        N  0.06455252  0.98696325  0.92928254    -0.25200
C946        C  0.05087471  0.65448032  0.96889653    -0.06100
N947        N  0.14663424  0.57160148  0.96700696    -0.46300
N948        N  0.34728225  0.93997821  0.96643627    -0.46500
C949        C  0.06900561  0.67461375  0.94284999     0.42800
N950        N  0.46679069  0.56281381  0.00579154     0.01600
N951        N  0.01923685  0.52610198  0.90066892    -0.25200
N952        N  0.09354411  0.57208199  0.99295125    -0.25700
N953        N  0.48067528  0.98410425  0.89965160     0.01300
H954        H  0.06417936  0.57216442  0.86949788     0.07200
H955        H  0.36128719  0.91522363  0.90414790     0.07200
N956        N  0.42812697  0.52121310  0.00514351    -0.25800
N957        N  0.44594485  0.89534181  0.96595403    -0.25400
N958        N  0.05847578  0.60586544  0.94378344     0.01700
C959        C  0.49575164  0.00268949  0.57656980     0.43000
C960        C  0.10113527  0.98199745  0.92621698    -0.06600
N961        N  0.39924900  0.93662668  0.94094795    -0.25400
H962        H  0.44815715  0.83859454  0.94728436     0.07200
N963        N  0.02557908  0.53729685  0.55953277    -0.46600
H964        H  0.13738865  0.00983210  0.92674064     0.07200
C965        C  0.49586962  0.50471260  0.85746791     0.42900
C966        C  0.13014354  0.58549380  0.50875569    -0.06100
Co967      Co  0.06194861  0.54670644  0.93547053     0.73800
N968        N  0.03394942  0.91088438  0.92545222    -0.46300
C969        C  0.41268896  0.57655032  0.01338355     0.43100
N970        N  0.07329701  0.64265615  0.92831074    -0.46300
Co971      Co  0.46199076  0.93968276  0.93365112     0.73900
C972        C  0.36369721  0.92572325  0.92479629    -0.06600
C973        C  0.46070606  0.96573611  0.55862804    -0.06200
N974        N  0.04645246  0.61268123  0.96793921    -0.25700
N975        N  0.42021577  0.86537398  0.50564694    -0.46500
H976        H  0.35554589  0.49867198  0.00909272     0.07200
C977        C  0.03117764  0.54178408  0.87530102    -0.06600
Cl978      Cl  0.49621529  0.50402827  0.96704246    -0.49600
C979        C  0.08055111  0.93178746  0.92305143     0.42900
H980        H  0.04633465  0.67054023  0.98663450     0.07100
N981        N  0.46632215  0.97021908  0.87462084    -0.46300
C982        C  0.16372058  0.58548932  0.74090164     0.42800
N983        N  0.10285776  0.56440119  0.71847982     0.01700
C984        C  0.39062713  0.52484539  0.76003287    -0.06200
H985        H  0.42806839  0.93317212  0.81448007     0.07100
C986        C  0.43964401  0.85231792  0.71311076    -0.06600
Co987      Co  0.02911441  0.56720100  0.75088972     0.74200
N988        N  0.47266384  0.97973040  0.78335933    -0.25800
Co989      Co  0.42951093  0.95979957  0.74867072     0.74100
C990        C  0.42290895  0.83169177  0.73912316     0.42900
N991        N  0.02353362  0.94508432  0.67757133     0.01300
N992        N  0.43296986  0.90046694  0.73937527     0.01400
N993        N  0.45793484  0.59563737  0.76096946    -0.46600
H994        H  0.13168194  0.59723027  0.77900064     0.07100
N995        N  0.51111592  0.52186764  0.78447758     0.01700
N996        N  0.38706167  0.94323864  0.71537647     0.01400
C997        C  0.32737385  0.92504269  0.69237520     0.43000
N998        N  0.06256222  0.98643906  0.67852352    -0.25200
C999        C  0.04736653  0.65369422  0.72053510    -0.06100
N1000       N  0.14534350  0.57238321  0.71661629    -0.46300
N1001       N  0.34515392  0.93677423  0.71689077    -0.46500
C1002       C  0.06330571  0.67418801  0.69439726     0.42800
N1003       N  0.46549005  0.56119170  0.75674282     0.01600
N1004       N  0.01749743  0.52720664  0.65072734    -0.25200
N1005       N  0.09198741  0.57151910  0.74289845    -0.25700
N1006       N  0.47900941  0.98518143  0.64948714     0.01300
H1007       H  0.06282411  0.57379147  0.61983887     0.07200
H1008       H  0.35951628  0.91314970  0.65440677     0.07200
N1009       N  0.42687408  0.51956897  0.75598340    -0.25800
N1010       N  0.44430494  0.89426227  0.71489871    -0.25400
N1011       N  0.05599212  0.60634549  0.69460308     0.01700
C1012       C  0.49626372  0.00067740  0.82659771     0.43000
C1013       C  0.09831318  0.98001051  0.67523467    -0.06600
N1014       N  0.39810638  0.93644194  0.69093816    -0.25400
H1015       H  0.44352453  0.83668766  0.69498497     0.07200
N1016       N  0.02555653  0.53544065  0.80952194    -0.46600
H1017       H  0.13483588  0.00701862  0.67611140     0.07200
C1018       C  0.99475011  0.50651507  0.60741591     0.42900
C1019       C  0.12881066  0.58552800  0.75856046    -0.06100
Co1020     Co  0.06017688  0.54701089  0.68543357     0.73800
N1021       N  0.03016834  0.90993432  0.67381264    -0.46300
C1022       C  0.41155374  0.57513848  0.76402526     0.43100
N1023       N  0.06861451  0.64308915  0.67939102    -0.46300
Co1024     Co  0.46039017  0.93986309  0.68311836     0.73900
C1025       C  0.36205803  0.92414072  0.67497035    -0.06600
C1026       C  0.46097900  0.96369469  0.80869164    -0.06200
N1027       N  0.04435934  0.61245335  0.71902570    -0.25700
N1028       N  0.41883562  0.86319421  0.75439288    -0.46500
H1029       H  0.35428911  0.49724361  0.75941461     0.07200
C1030       C  0.02972035  0.54335628  0.62545700    -0.06600
Cl1031     Cl  0.49484289  0.50347246  0.71704561    -0.49600
C1032       C  0.07641852  0.92938841  0.67138695     0.42900
H1033       H  0.04268878  0.66908961  0.73852841     0.07100
N1034       N  0.46503780  0.97170801  0.62436673    -0.46300
C1035       C  0.16205311  0.84285674  0.90653153     0.30300
C1036       C  0.15747953  0.84915792  0.96003318     0.30300
C1037       C  0.13820650  0.86828268  0.91755795    -0.05900
C1038       C  0.13626475  0.79548291  0.92084695    -0.06700
C1039       C  0.20955469  0.86888960  0.92081100    -0.06500
C1040       C  0.13562757  0.87187971  0.94501140    -0.05900
C1041       C  0.13294893  0.79985907  0.94798444    -0.06700
C1042       C  0.20635406  0.87426211  0.94785505    -0.06500
C1043       C  0.11537409  0.89798221  0.95005951    -0.31900
N1044       N  0.10434212  0.90792283  0.92654991     0.14600
C1045       C  0.11847091  0.89056157  0.90659066    -0.31900
H1046       H  0.11453311  0.89385724  0.88568866     0.16500
C1047       C  0.10773841  0.75615321  0.95840552    -0.30900
N1048       N  0.09642320  0.72419987  0.93861505     0.13300
C1049       C  0.11452356  0.74756300  0.91547349    -0.30900
C1050       C  0.25044420  0.90082494  0.95745981    -0.31200
N1051       N  0.28094679  0.90782139  0.93760722     0.13800
H1052       H  0.25962387  0.91168720  0.97793014     0.16400
C1053       C  0.25668424  0.88813680  0.91503642    -0.31200
H1054       H  0.27213046  0.88714443  0.89615477     0.16400
H1055       H  0.11149399  0.73096420  0.89631776     0.16400
H1056       H  0.10977310  0.91012772  0.96901892     0.16500
H1057       H  0.09918093  0.74845962  0.97919209     0.16400
C1058       C  0.16137590  0.84264374  0.65668998     0.30300
C1059       C  0.15582181  0.85113120  0.70998391     0.30300
C1060       C  0.13699380  0.86830983  0.66678007    -0.05900
C1061       C  0.13216762  0.79500621  0.67151202    -0.06700
C1062       C  0.20775369  0.86685277  0.67114089    -0.06500
C1063       C  0.13430361  0.87293604  0.69409388    -0.05900
C1064       C  0.12937247  0.80043049  0.69884930    -0.06700
C1065       C  0.20423833  0.87157808  0.69804041    -0.06500
C1066       C  0.10884601  0.89374773  0.69885745    -0.31900
N1067       N  0.09845429  0.90380512  0.67521541     0.14600
C1068       C  0.11389424  0.88712278  0.65552542    -0.31900
H1069       H  0.10877471  0.88887445  0.63461342     0.16500
C1070       C  0.10138934  0.75673756  0.70948604    -0.30900
N1071       N  0.08847439  0.72397920  0.68995313     0.13300
C1072       C  0.10559613  0.74652902  0.66658721    -0.30900
C1073       C  0.24791442  0.89379684  0.70819005    -0.31200
N1074       N  0.27854794  0.90261886  0.68812314     0.13800
H1075       H  0.25679820  0.90254241  0.72888348     0.16400
C1076       C  0.25464316  0.88618993  0.66511805    -0.31200
H1077       H  0.27000130  0.88826844  0.64570532     0.16400
H1078       H  0.09776876  0.72811994  0.64774716     0.16400
H1079       H  0.09808087  0.90070001  0.71792082     0.16500
H1080       H  0.09182378  0.74928427  0.73019160     0.16400
C1081       C  0.16928858  0.89586003  0.78177274    -0.11100
C1082       C  0.17078607  0.86001062  0.79400782     0.15500
C1083       C  0.17312544  0.82572721  0.77908260     0.02400
C1084       C  0.16757363  0.82427641  0.75215421    -0.15400
C1085       C  0.15947045  0.85619494  0.73959573    -0.10200
C1086       C  0.16765935  0.89650404  0.75433366     0.09100
C1087       C  0.16818786  0.85755700  0.82240044     0.10100
S1088       S  0.18309145  0.78303415  0.79318336    -0.24600
H1089       H  0.17161954  0.79882272  0.74082274     0.20400
S1090       S  0.18459775  0.95249934  0.74060084    -0.30300
H1091       H  0.17161115  0.92442388  0.79362006     0.10700
C1092       C  0.20560797  0.88964024  0.83783709     0.03900
C1093       C  0.20195069  0.88361055  0.86493814    -0.12600
C1094       C  0.16332691  0.84410925  0.87680508    -0.08200
C1095       C  0.12366559  0.81488135  0.86095295     0.07300
C1096       C  0.12749806  0.82115726  0.83379894    -0.13300
S1097       S  0.25811554  0.93767464  0.82312438    -0.30300
H1098       H  0.22855798  0.91170831  0.87672572     0.11600
S1099       S  0.06580439  0.77196499  0.87281516    -0.27400
H1100       H  0.09814841  0.79805217  0.82133259     0.08800
H1101       H  0.20844786  0.94922197  0.71829961     0.27300
H1102       H  0.28400136  0.95444405  0.84655020     0.22100
H1103       H  0.06589430  0.79542194  0.89617696     0.27400
H1104       H  0.20964102  0.81123032  0.81467255     0.16200
C1105       C  0.17493304  0.88232789  0.58583656    -0.11100
C1106       C  0.15425322  0.83890615  0.57294817     0.15500
C1107       C  0.14555900  0.79895914  0.58633203     0.02400
C1108       C  0.15496463  0.80300790  0.61306117    -0.15400
C1109       C  0.16778948  0.84441367  0.62716158    -0.10200
C1110       C  0.18322116  0.88625240  0.61275513     0.09100
C1111       C  0.15181017  0.83884185  0.54452841     0.10100
S1112       S  0.12276423  0.74222848  0.57048772    -0.24600
H1113       H  0.15261450  0.77369600  0.62257757     0.20400
S1114       S  0.21312732  0.94602567  0.62582977    -0.30300
H1115       H  0.18539630  0.91357777  0.57462357     0.10700
C1116       C  0.12143282  0.84827412  0.53195036     0.03900
C1117       C  0.12383724  0.85142000  0.50448928    -0.12600
C1118       C  0.15671451  0.84633913  0.98967216    -0.08200
C1119       C  0.18379771  0.83172117  0.00290719     0.07300
C1120       C  0.18264587  0.83109431  0.53015916    -0.13300
S1121       S  0.07881334  0.85461950  0.55076897    -0.30300
H1122       H  0.09798733  0.85480890  0.99479808     0.11600
S1123       S  0.21978328  0.81116548  0.98827481    -0.27400
H1124       H  0.20525674  0.82306398  0.54046385     0.08800
H1125       H  0.21890097  0.93991213  0.65231089     0.27300
H1126       H  0.06306933  0.86861872  0.52953013     0.22100
H1127       H  0.20147334  0.79726510  0.96293380     0.27400
H1128       H  0.09744777  0.74824790  0.55106329     0.16200
C1129       C  0.31057874  0.67460841  0.90365519    -0.11100
C1130       C  0.33202935  0.65518930  0.88937998     0.15500
C1131       C  0.35871939  0.64090897  0.90190444     0.02400
C1132       C  0.36262019  0.64567959  0.92916887    -0.15400
C1133       C  0.33758454  0.66094167  0.94429296    -0.10200
C1134       C  0.31341571  0.67876792  0.93089262     0.09100
C1135       C  0.33114467  0.65702729  0.86107989     0.10100
S1136       S  0.38906632  0.61721302  0.88420004    -0.24600
H1137       H  0.38672445  0.63897533  0.93797359     0.20400
S1138       S  0.28542988  0.70837357  0.94514990    -0.30300
H1139       H  0.29220826  0.68769632  0.89322059     0.09100
C1140       C  0.29055974  0.62690253  0.84726709     0.03900
C1141       C  0.29113566  0.63139658  0.82011073    -0.12600
C1142       C  0.33057002  0.66723616  0.80667435    -0.08200
C1143       C  0.37248371  0.69557230  0.82107703     0.07300
C1144       C  0.37132933  0.69118580  0.84826192    -0.13300
S1145       S  0.23898880  0.58116571  0.86396379    -0.30300
H1146       H  0.26177187  0.60414632  0.80948445     0.11600
S1147       S  0.43003474  0.73505366  0.80731713    -0.27400
H1148       H  0.40256893  0.71349966  0.85957321     0.08800
H1149       H  0.29513183  0.71220660  0.97205525     0.27300
H1150       H  0.20873818  0.56866735  0.84248454     0.22100
H1151       H  0.42736552  0.70837362  0.78489082     0.27400
H1152       H  0.35807311  0.59751366  0.86293829     0.16200
C1153       C  0.33147150  0.61809352  0.65128723    -0.11100
C1154       C  0.32827832  0.65358971  0.63975877     0.15500
C1155       C  0.31966907  0.68332846  0.65529151     0.02400
C1156       C  0.32246611  0.68226613  0.68229909    -0.15400
C1157       C  0.33242779  0.65125356  0.69430013    -0.10200
C1158       C  0.32944651  0.61412316  0.67864539     0.09100
C1159       C  0.33016996  0.65668395  0.61139421     0.10100
S1160       S  0.30398979  0.72240520  0.64199784    -0.24600
H1161       H  0.31529581  0.70515542  0.69416629     0.20400
S1162       S  0.31196424  0.55696233  0.69071030    -0.30300
H1163       H  0.33244655  0.59176734  0.63885903     0.10700
C1164       C  0.36527878  0.69681503  0.59865872     0.03900
C1165       C  0.36320219  0.69947588  0.57145834    -0.12600
C1166       C  0.32696093  0.66263296  0.55683215    -0.08200
C1167       C  0.29488958  0.61986062  0.56999197     0.07300
C1168       C  0.29550742  0.61885885  0.59724383    -0.13300
S1169       S  0.41396912  0.74329374  0.61677964    -0.30300
H1170       H  0.39212427  0.72883237  0.56164004     0.11600
S1171       S  0.25438242  0.56332998  0.55485987    -0.27400
H1172       H  0.26969766  0.58750877  0.60758865     0.08800
H1173       H  0.28492954  0.55772075  0.71211462     0.27300
H1174       H  0.43212878  0.77590756  0.59614529     0.22100
H1175       H  0.28054372  0.56587478  0.53234622     0.27400
H1176       H  0.28031622  0.69414290  0.61985332     0.16200
C1177       C  0.83077817  0.16540321  0.02731843     0.30300
C1178       C  0.83742088  0.15934002  0.47399473     0.30300
C1179       C  0.85497408  0.14003618  0.01697512    -0.05900
C1180       C  0.78441793  0.14159079  0.01261836    -0.06700
C1181       C  0.85913665  0.21313241  0.01316901    -0.06500
C1182       C  0.85761488  0.13537452  0.48960098    -0.05900
C1183       C  0.78818219  0.13609632  0.48571628    -0.06700
C1184       C  0.86339889  0.20877611  0.48602895    -0.06500
C1185       C  0.87786529  0.10894974  0.48549037    -0.31900
N1186       N  0.88922255  0.10053840  0.50930766     0.14600
C1187       C  0.87557629  0.11923801  0.02870245    -0.31900
H1188       H  0.87982945  0.11729404  0.04972323     0.16500
C1189       C  0.74419258  0.11228428  0.47569963    -0.30900
N1190       N  0.71369362  0.10590915  0.99548127     0.13300
C1191       C  0.73776229  0.12441310  0.01822215    -0.30900
C1192       C  0.88945304  0.25250559  0.47570648    -0.31200
N1193       N  0.89994341  0.28447480  0.99542921     0.13800
H1194       H  0.89832180  0.26018454  0.45494768     0.16400
C1195       C  0.88114555  0.26115387  0.01848726    -0.31200
H1196       H  0.88274164  0.27801271  0.03735814     0.16400
H1197       H  0.72255248  0.12493429  0.03728200     0.16400
H1198       H  0.88340966  0.09525161  0.46714553     0.16500
H1199       H  0.73512995  0.10210792  0.45515112     0.16400
C1200       C  0.83010960  0.16488506  0.27704719     0.30300
C1201       C  0.83524890  0.15504881  0.22389482     0.30300
C1202       C  0.85093063  0.13589785  0.26724096    -0.05900
C1203       C  0.78298912  0.14080520  0.26270116    -0.06700
C1204       C  0.85820523  0.21131135  0.26190928    -0.06500
C1205       C  0.85527732  0.13219401  0.24002744    -0.05900
C1206       C  0.78651869  0.13519618  0.23570526    -0.06700
C1207       C  0.86245378  0.20571174  0.23493535    -0.06500
C1208       C  0.88080462  0.11136740  0.23588940    -0.31900
N1209       N  0.88821358  0.09917342  0.25974109     0.14600
C1210       C  0.87043668  0.11404219  0.27907955    -0.31900
H1211       H  0.87300772  0.11062265  0.30014022     0.16500
C1212       C  0.74300148  0.11385132  0.22531242    -0.30900
N1213       N  0.71250715  0.10719851  0.24507660     0.13300
C1214       C  0.73628595  0.12444905  0.26801495    -0.30900
C1215       C  0.88879802  0.24959437  0.22435694    -0.31200
N1216       N  0.89818287  0.28208008  0.24369066     0.13800
H1217       H  0.89890579  0.25721604  0.20371858     0.16400
C1218       C  0.87894885  0.25918173  0.26677168    -0.31200
H1219       H  0.87988187  0.27598671  0.28556583     0.16400
H1220       H  0.72069148  0.12558346  0.28680635     0.16400
H1221       H  0.89405832  0.10625708  0.21718139     0.16500
H1222       H  0.73419453  0.10448232  0.20466110     0.16400
C1223       C  0.66487398  0.08443752  0.99132473     0.42800
N1224       N  0.60448548  0.06456067  0.46863903     0.01700
C1225       C  0.89186207  0.02638162  0.50931881    -0.06200
H1226       H  0.92753865  0.43545099  0.06431030     0.07100
C1227       C  0.94283742  0.35416821  0.46498377    -0.06600
Co1228     Co  0.53053252  0.06835247  0.00041707     0.74200
N1229       N  0.97302871  0.48153455  0.03330866    -0.25800
Co1230     Co  0.93041411  0.46127674  0.49855038     0.74100
C1231       C  0.92559615  0.33406270  0.49106839     0.42900
N1232       N  0.52596707  0.44525741  0.42867747     0.01300
N1233       N  0.93378475  0.40188686  0.49011002     0.01400
N1234       N  0.95914739  0.09718749  0.51018794    -0.46600
H1235       H  0.63297250  0.09716553  0.02920136     0.07100
N1236       N  0.01163127  0.02355197  0.03442589     0.01700
N1237       N  0.88833519  0.44436797  0.46520736     0.01400
C1238       C  0.82966119  0.42868715  0.44191116     0.43000
N1239       N  0.56455256  0.48696323  0.42928263    -0.25200
C1240       C  0.55087500  0.15448033  0.46889663    -0.06100
N1241       N  0.64663421  0.07160129  0.46700700    -0.46300
N1242       N  0.84728227  0.43997844  0.46643617    -0.46500
C1243       C  0.56900594  0.17461376  0.44285008     0.42800
N1244       N  0.96679050  0.06281365  0.50579154     0.01600
N1245       N  0.51923690  0.02610199  0.40066892    -0.25200
N1246       N  0.59354412  0.07208188  0.49295129    -0.25700
N1247       N  0.98067533  0.48410425  0.39965157     0.01300
H1248       H  0.56417950  0.07216448  0.36949789     0.07200
H1249       H  0.86128727  0.41522400  0.40414778     0.07200
N1250       N  0.92812677  0.02121290  0.50514356    -0.25800
N1251       N  0.94594484  0.39534182  0.46595400    -0.25400
N1252       N  0.55847592  0.10586538  0.44378351     0.01700
C1253       C  0.99575180  0.50268955  0.07656982     0.43000
C1254       C  0.60113524  0.48199735  0.42621696    -0.06600
N1255       N  0.89924903  0.43662686  0.44094787    -0.25400
H1256       H  0.94815690  0.33859441  0.44728429     0.07200
N1257       N  0.52557914  0.03729693  0.05953276    -0.46600
H1258       H  0.63738870  0.50983199  0.42674064     0.07200
C1259       C  0.99586959  0.00471267  0.35746791     0.42900
C1260       C  0.63014356  0.08549400  0.00875564    -0.06100
Co1261     Co  0.56194865  0.04670638  0.43547056     0.73800
N1262       N  0.53394937  0.41088434  0.42545215    -0.46300
C1263       C  0.91268873  0.07655012  0.51338353     0.43100
N1264       N  0.57329720  0.14265610  0.42831081    -0.46300
Co1265     Co  0.96199078  0.43968280  0.43365109     0.73900
C1266       C  0.86369728  0.42572351  0.42479620    -0.06600
C1267       C  0.96070617  0.46573617  0.05862807    -0.06200
N1268       N  0.54645262  0.11268117  0.46793926    -0.25700
N1269       N  0.92021603  0.36537394  0.00564703    -0.46500
H1270       H  0.85554558  0.99867178  0.50909268     0.07200
C1271       C  0.53117770  0.04178417  0.37530103    -0.06600
Cl1272     Cl  0.99621531  0.00402821  0.46704242    -0.49600
C1273       C  0.58055105  0.43178737  0.42305135     0.42900
H1274       H  0.54633492  0.17054015  0.48663456     0.07100
N1275       N  0.96632207  0.47021915  0.37462084    -0.46300
C1276       C  0.66372051  0.08548928  0.24090178     0.42800
N1277       N  0.60285776  0.06440127  0.21847993     0.01700
C1278       C  0.89062714  0.02484534  0.26003280    -0.06200
H1279       H  0.92806819  0.43317199  0.31448011     0.07100
C1280       C  0.93964403  0.35231797  0.21311082    -0.06600
Co1281     Co  0.52911443  0.06720100  0.25088979     0.74200
N1282       N  0.97266376  0.47973039  0.28335941    -0.25800
Co1283     Co  0.92951095  0.45979966  0.24867074     0.74100
C1284       C  0.92290878  0.33169175  0.23912320     0.42900
N1285       N  0.52353367  0.44508427  0.17757124     0.01300
N1286       N  0.93296976  0.40046694  0.23937532     0.01400
N1287       N  0.95793485  0.09563734  0.26096936    -0.46600
H1288       H  0.63168190  0.09723038  0.27900084     0.07100
N1289       N  0.01111592  0.02186760  0.28447759     0.01700
N1290       N  0.88706171  0.44323883  0.21537646     0.01400
C1291       C  0.82737384  0.42504292  0.19237522     0.43000
N1292       N  0.56256226  0.48643899  0.17852343    -0.25200
C1293       C  0.54736659  0.15369425  0.22053517    -0.06100
N1294       N  0.64534344  0.07238316  0.21661641    -0.46300
N1295       N  0.84515399  0.43677447  0.21689078    -0.46500
C1296       C  0.56330573  0.17418801  0.19439732     0.42800
N1297       N  0.96549006  0.06119164  0.25674274     0.01600
N1298       N  0.51749753  0.02720672  0.15072739    -0.25200
N1299       N  0.59198744  0.07151924  0.24289857    -0.25700
N1300       N  0.97900948  0.48518146  0.14948718     0.01300
H1301       H  0.56282426  0.07379163  0.11983896     0.07200
H1302       H  0.85951610  0.41314988  0.15440683     0.07200
N1303       N  0.92687413  0.01956894  0.25598335    -0.25800
N1304       N  0.94430483  0.39426227  0.21489873    -0.25400
N1305       N  0.55599225  0.10634553  0.19460318     0.01700
C1306       C  0.99626365  0.50067734  0.32659777     0.43000
C1307       C  0.59831322  0.48001045  0.17523457    -0.06600
N1308       N  0.89810638  0.43644210  0.19093815    -0.25400
H1309       H  0.94352467  0.33668777  0.19498506     0.07200
N1310       N  0.52555662  0.03544062  0.30952200    -0.46600
H1311       H  0.63483596  0.50701859  0.17611121     0.07200
C1312       C  0.49475022  0.00651521  0.10741592     0.42900
C1313       C  0.62881066  0.08552815  0.25856056    -0.06100
Co1314     Co  0.56017692  0.04701093  0.18543365     0.73800
N1315       N  0.53016839  0.40993425  0.17381254    -0.46300
C1316       C  0.91155375  0.07513843  0.26402521     0.43100
N1317       N  0.56861457  0.14308917  0.17939109    -0.46300
Co1318     Co  0.96039012  0.43986309  0.18311836     0.73900
C1319       C  0.86205797  0.42414090  0.17497035    -0.06600
C1320       C  0.96097890  0.46369468  0.30869169    -0.06200
N1321       N  0.54435947  0.11245339  0.21902579    -0.25700
N1322       N  0.91883546  0.36319421  0.25439290    -0.46500
H1323       H  0.85428919  0.99724355  0.25941455     0.07200
C1324       C  0.52972048  0.04335637  0.12545705    -0.06600
Cl1325     Cl  0.99484291  0.00347234  0.21704555    -0.49600
C1326       C  0.57641855  0.42938835  0.17138682     0.42900
H1327       H  0.54268886  0.16908963  0.23852845     0.07100
N1328       N  0.96503783  0.47170805  0.12436676    -0.46300
C1329       C  0.66205314  0.34285675  0.40653150     0.30300
C1330       C  0.65747967  0.34915806  0.46003315     0.30300
C1331       C  0.63820644  0.36828261  0.41755791    -0.05900
C1332       C  0.63626487  0.29548296  0.42084697    -0.06700
C1333       C  0.70955476  0.36888977  0.42081092    -0.06500
C1334       C  0.63562760  0.37187975  0.44501136    -0.05900
C1335       C  0.63294912  0.29985915  0.44798448    -0.06700
C1336       C  0.70635416  0.37426231  0.44785497    -0.06500
C1337       C  0.61537417  0.39798226  0.45005944    -0.31900
N1338       N  0.60434199  0.40792270  0.42654988     0.14600
C1339       C  0.61847071  0.39056138  0.40659061    -0.31900
H1340       H  0.61453283  0.39385699  0.38568862     0.16500
C1341       C  0.60773879  0.25615328  0.45840559    -0.30900
N1342       N  0.59642357  0.22419990  0.43861511     0.13300
C1343       C  0.61452375  0.24756306  0.41547356    -0.30900
C1344       C  0.75044431  0.40082515  0.45745972    -0.31200
N1345       N  0.78094687  0.40782158  0.43760711     0.13800
H1346       H  0.75962400  0.41168746  0.47793002     0.16400
C1347       C  0.75668431  0.38813699  0.41503632    -0.31200
H1348       H  0.77213050  0.38714462  0.39615464     0.16400
H1349       H  0.61149415  0.23096422  0.39631775     0.16400
H1350       H  0.60977333  0.41012798  0.46901897     0.16500
H1351       H  0.59918142  0.24845966  0.47919217     0.16400
C1352       C  0.66137589  0.34264368  0.15668999     0.30300
C1353       C  0.65582171  0.35113124  0.20998390     0.30300
C1354       C  0.63699372  0.36830971  0.16678000    -0.05900
C1355       C  0.63216762  0.29500621  0.17151210    -0.06700
C1356       C  0.70775365  0.36685275  0.17114091    -0.06500
C1357       C  0.63430349  0.37293595  0.19409380    -0.05900
C1358       C  0.62937240  0.30043051  0.19884937    -0.06700
C1359       C  0.70423825  0.37157811  0.19804042    -0.06500
C1360       C  0.60884592  0.39374765  0.19885733    -0.31900
N1361       N  0.59845428  0.40380503  0.17521526     0.14600
C1362       C  0.61389425  0.38712270  0.15552529    -0.31900
H1363       H  0.60877485  0.38887447  0.13461327     0.16500
C1364       C  0.60138939  0.25673758  0.20948613    -0.30900
N1365       N  0.58847450  0.22397923  0.18995322     0.13300
C1366       C  0.60559622  0.24652904  0.16658731    -0.30900
C1367       C  0.74791433  0.39379701  0.20819005    -0.31200
N1368       N  0.77854790  0.40261903  0.18812318     0.13800
H1369       H  0.75679812  0.40254276  0.22888355     0.16400
C1370       C  0.75464311  0.38618989  0.16511810    -0.31200
H1371       H  0.77000129  0.38826828  0.14570537     0.16400
H1372       H  0.59776884  0.22811998  0.14774725     0.16400
H1373       H  0.59808081  0.40069997  0.21792063     0.16500
H1374       H  0.59182387  0.24928428  0.23019169     0.16400
C1375       C  0.66928806  0.39585995  0.28177273    -0.11100
C1376       C  0.67078596  0.36001076  0.29400781     0.15500
C1377       C  0.67312575  0.32572758  0.27908258     0.02400
C1378       C  0.66757386  0.32427672  0.25215420    -0.15400
C1379       C  0.65947037  0.35619502  0.23959572    -0.10200
C1380       C  0.66765900  0.39650400  0.25433365     0.09100
C1381       C  0.66818772  0.35755714  0.32240044     0.10100
S1382       S  0.68309213  0.28303476  0.29318329    -0.24600
H1383       H  0.67161992  0.29882305  0.24082270     0.20400
S1384       S  0.68459720  0.45249927  0.24060091    -0.30300
H1385       H  0.67161027  0.42442356  0.29362000     0.10700
C1386       C  0.70560770  0.38964056  0.33783711     0.03900
C1387       C  0.70195044  0.38361077  0.36493814    -0.12600
C1388       C  0.66332689  0.34410922  0.37680505    -0.08200
C1389       C  0.62366560  0.31488119  0.36095295     0.07300
C1390       C  0.62749801  0.32115714  0.33379892    -0.13300
S1391       S  0.75811527  0.43767517  0.32312449    -0.30300
H1392       H  0.72855762  0.41170856  0.37672576     0.11600
S1393       S  0.56580442  0.27196486  0.37281524    -0.27400
H1394       H  0.59814847  0.29805198  0.32133261     0.08800
H1395       H  0.70844744  0.44922206  0.21829969     0.27300
H1396       H  0.78400098  0.45444467  0.34655034     0.22100
H1397       H  0.56589432  0.29542193  0.39617699     0.27400
H1398       H  0.70964145  0.31123090  0.31467256     0.16200
C1399       C  0.67493305  0.38232767  0.08583654    -0.11100
C1400       C  0.65425329  0.33890589  0.07294818     0.15500
C1401       C  0.64555901  0.29895889  0.08633210     0.02400
C1402       C  0.65496465  0.30300777  0.11306125    -0.15400
C1403       C  0.66778952  0.34441358  0.12716161    -0.10200
C1404       C  0.68322123  0.38625231  0.11275510     0.09100
C1405       C  0.65180997  0.33884144  0.04452840     0.10100
S1406       S  0.62276410  0.24222812  0.07048786    -0.24600
H1407       H  0.65261460  0.27369584  0.12257772     0.20400
S1408       S  0.71312774  0.44602575  0.12582954    -0.30300
H1409       H  0.68539623  0.41357746  0.07462355     0.10700
C1410       C  0.62143276  0.34827399  0.03195039     0.03900
C1411       C  0.62383713  0.35141986  0.00448930    -0.12600
C1412       C  0.65671471  0.34633938  0.48967214    -0.08200
C1413       C  0.68379808  0.33172161  0.50290719     0.07300
C1414       C  0.68264537  0.33109355  0.03015908    -0.13300
S1415       S  0.57881356  0.35461971  0.05076907    -0.30300
H1416       H  0.59798728  0.35480886  0.49479799     0.11600
S1417       S  0.71978384  0.31116609  0.48827478    -0.27400
H1418       H  0.70525604  0.32306297  0.04046369     0.08800
H1419       H  0.71890100  0.43991220  0.15231072     0.27300
H1420       H  0.56306976  0.36861924  0.02953028     0.22100
H1421       H  0.70147361  0.29726528  0.46293385     0.27400
H1422       H  0.59744762  0.24824746  0.05106341     0.16200
C1423       C  0.81057871  0.17460782  0.40365512    -0.11100
C1424       C  0.83202943  0.15518871  0.38937998     0.15500
C1425       C  0.85871971  0.14090873  0.40190455     0.02400
C1426       C  0.86262048  0.14567959  0.42916895    -0.15400
C1427       C  0.83758465  0.16094153  0.44429296    -0.10200
C1428       C  0.81341563  0.17876752  0.43089255     0.09100
C1429       C  0.83114479  0.15702666  0.36107986     0.10100
S1430       S  0.88906689  0.11721290  0.38420032    -0.24600
H1431       H  0.88672508  0.13897559  0.43797380     0.20400
S1432       S  0.78542951  0.20837300  0.44514977    -0.30300
H1433       H  0.79220821  0.18769558  0.39322046     0.09100
C1434       C  0.79055983  0.12690198  0.34726706     0.03900
C1435       C  0.79113567  0.13139627  0.32011073    -0.12600
C1436       C  0.83056999  0.16723591  0.30667435    -0.08200
C1437       C  0.87248373  0.19557188  0.32107703     0.07300
C1438       C  0.87132942  0.19118524  0.34826190    -0.13300
S1439       S  0.73898904  0.08116488  0.36396371    -0.30300
H1440       H  0.76177176  0.10414599  0.30948441     0.11600
S1441       S  0.93003474  0.23505353  0.30731720    -0.27400
H1442       H  0.90256898  0.21349909  0.35957316     0.08800
H1443       H  0.79513174  0.21220645  0.47205511     0.27300
H1444       H  0.70873819  0.06866712  0.34248463     0.22100
H1445       H  0.92736562  0.20837372  0.28489080     0.27400
H1446       H  0.85807381  0.09751345  0.36293853     0.16200
C1447       C  0.83147102  0.11809342  0.15128723    -0.11100
C1448       C  0.82827776  0.15358957  0.13975882     0.15500
C1449       C  0.81966867  0.18332839  0.15529160     0.02400
C1450       C  0.82246583  0.18226605  0.18229917    -0.15400
C1451       C  0.83242762  0.15125351  0.19430014    -0.10200
C1452       C  0.82944629  0.11412310  0.17864537     0.09100
C1453       C  0.83016945  0.15668389  0.11139429     0.10100
S1454       S  0.80398923  0.22240504  0.14199798    -0.24600
H1455       H  0.81529552  0.20515531  0.19416643     0.20400
S1456       S  0.81196400  0.05696225  0.19071023    -0.30300
H1457       H  0.83244598  0.09176711  0.13885894     0.10700
C1458       C  0.86527830  0.19681500  0.09865885     0.03900
C1459       C  0.86320192  0.19947581  0.07145845    -0.12600
C1460       C  0.82696080  0.16263283  0.05683221    -0.08200
C1461       C  0.79488945  0.11986045  0.06999201     0.07300
C1462       C  0.79550713  0.11885871  0.09724386    -0.13300
S1463       S  0.91396837  0.24329390  0.11677990    -0.30300
H1464       H  0.89212392  0.22883229  0.06164021     0.11600
S1465       S  0.75438216  0.06332984  0.05485995    -0.27400
H1466       H  0.76969731  0.08750855  0.10758868     0.08800
H1467       H  0.78492933  0.05772066  0.21211456     0.27300
H1468       H  0.93212809  0.27590769  0.09614553     0.22100
H1469       H  0.78054350  0.06587465  0.03234632     0.27400
H1470       H  0.78031566  0.19414275  0.11985345     0.16200
C1471       C  0.83077819  0.16540322  0.52731839     0.30300
C1472       C  0.83742086  0.15934005  0.97399473     0.30300
C1473       C  0.85497410  0.14003618  0.51697511    -0.05900
C1474       C  0.78441792  0.14159080  0.51261832    -0.06700
C1475       C  0.85913666  0.21313242  0.51316899    -0.06500
C1476       C  0.85761489  0.13537456  0.98960099    -0.05900
C1477       C  0.78818220  0.13609636  0.98571631    -0.06700
C1478       C  0.86339893  0.20877611  0.98602897    -0.06500
C1479       C  0.87786550  0.10894994  0.98549034    -0.31900
N1480       N  0.88922283  0.10053866  0.00930767     0.14600
C1481       C  0.87557622  0.11923794  0.52870246    -0.31900
H1482       H  0.87982945  0.11729402  0.54972322     0.16500
C1483       C  0.74419265  0.11228454  0.97569965    -0.30900
N1484       N  0.71369357  0.10590891  0.49548130     0.13300
C1485       C  0.73776227  0.12441303  0.51822212    -0.30900
C1486       C  0.88945322  0.25250558  0.97570650    -0.31200
N1487       N  0.89994331  0.28447480  0.49542919     0.13800
H1488       H  0.89832216  0.26018450  0.95494773     0.16400
C1489       C  0.88114555  0.26115386  0.51848725    -0.31200
H1490       H  0.88274165  0.27801272  0.53735816     0.16400
H1491       H  0.72255247  0.12493427  0.53728199     0.16400
H1492       H  0.88340991  0.09525191  0.96714561     0.16500
H1493       H  0.73513002  0.10210830  0.95515103     0.16400
C1494       C  0.83010961  0.16488516  0.77704718     0.30300
C1495       C  0.83524894  0.15504885  0.72389481     0.30300
C1496       C  0.85093063  0.13589791  0.76724097    -0.05900
C1497       C  0.78298914  0.14080530  0.76270115    -0.06700
C1498       C  0.85820522  0.21131143  0.76190927    -0.06500
C1499       C  0.85527733  0.13219406  0.74002746    -0.05900
C1500       C  0.78651873  0.13519622  0.73570525    -0.06700
C1501       C  0.86245377  0.20571178  0.73493535    -0.06500
C1502       C  0.88080459  0.11136740  0.73588942    -0.31900
N1503       N  0.88821353  0.09917340  0.75974113     0.14600
C1504       C  0.87043662  0.11404219  0.77907956    -0.31900
H1505       H  0.87300767  0.11062268  0.80014025     0.16500
C1506       C  0.74300154  0.11385131  0.72531238    -0.30900
N1507       N  0.71250719  0.10719859  0.74507657     0.13300
C1508       C  0.73628596  0.12444922  0.76801490    -0.30900
C1509       C  0.88879812  0.24959439  0.72435691    -0.31200
N1510       N  0.89818306  0.28208014  0.74369067     0.13800
H1511       H  0.89890588  0.25721599  0.70371865     0.16400
C1512       C  0.87894894  0.25918183  0.76677165    -0.31200
H1513       H  0.87988194  0.27598685  0.78556582     0.16400
H1514       H  0.72069149  0.12558377  0.78680628     0.16400
H1515       H  0.89405829  0.10625709  0.71718144     0.16500
H1516       H  0.73419467  0.10448236  0.70466115     0.16400
C1517       C  0.66487389  0.08443718  0.49132478     0.42800
N1518       N  0.60448545  0.06456063  0.96863899     0.01700
C1519       C  0.89186216  0.02638176  0.00931876    -0.06200
H1520       H  0.92753856  0.43545091  0.56431029     0.07100
C1521       C  0.94283761  0.35416826  0.96498383    -0.06600
Co1522     Co  0.53053252  0.06835241  0.50041707     0.74200
N1523       N  0.97302868  0.48153451  0.53330865    -0.25800
Co1524     Co  0.93041410  0.46127668  0.99855043     0.74100
C1525       C  0.92559638  0.33406271  0.99106844     0.42900
N1526       N  0.52596704  0.44525742  0.92867743     0.01300
N1527       N  0.93378481  0.40188681  0.99011009     0.01400
N1528       N  0.95914756  0.09718751  0.01018802    -0.46600
H1529       H  0.63297238  0.09716517  0.52920148     0.07100
N1530       N  0.01163135  0.02355218  0.53442595     0.01700
N1531       N  0.88833520  0.44436787  0.96520743     0.01400
C1532       C  0.82966108  0.42868669  0.94191127     0.43000
N1533       N  0.56455253  0.48696322  0.92928254    -0.25200
C1534       C  0.55087471  0.15448022  0.96889652    -0.06100
N1535       N  0.64663422  0.07160137  0.96700696    -0.46300
N1536       N  0.84728217  0.43997809  0.96643626    -0.46500
C1537       C  0.56900560  0.17461363  0.94284997     0.42800
N1538       N  0.96679056  0.06281362  0.00579155     0.01600
N1539       N  0.51923672  0.02610200  0.90066893    -0.25200
N1540       N  0.59354412  0.07208194  0.99295125    -0.25700
N1541       N  0.98067530  0.48410428  0.89965160     0.01300
H1542       H  0.56417927  0.07216443  0.86949788     0.07200
H1543       H  0.86128727  0.41522360  0.90414789     0.07200
N1544       N  0.92812677  0.02121292  0.00514352    -0.25800
N1545       N  0.94594488  0.39534178  0.96595405    -0.25400
N1546       N  0.55847578  0.10586532  0.94378345     0.01700
C1547       C  0.99575174  0.50268949  0.57656981     0.43000
C1548       C  0.60113522  0.48199731  0.92621698    -0.06600
N1549       N  0.89924906  0.43662679  0.94094795    -0.25400
H1550       H  0.94815710  0.33859444  0.94728430     0.07200
N1551       N  0.52557904  0.03729681  0.55953275    -0.46600
H1552       H  0.63738867  0.50983195  0.92674064     0.07200
C1553       C  0.99586961  0.00471263  0.85746791     0.42900
C1554       C  0.63014347  0.08549370  0.50875571    -0.06100
Co1555     Co  0.56194857  0.04670635  0.93547052     0.73800
N1556       N  0.53394932  0.41088432  0.92545222    -0.46300
C1557       C  0.91268889  0.07655025  0.01338355     0.43100
N1558       N  0.57329700  0.14265601  0.92831073    -0.46300
Co1559     Co  0.96199081  0.43968282  0.93365114     0.73900
C1560       C  0.86369723  0.42572318  0.92479630    -0.06600
C1561       C  0.96070613  0.46573614  0.55862805    -0.06200
N1562       N  0.54645248  0.11268114  0.96793921    -0.25700
N1563       N  0.92021579  0.36537393  0.50564694    -0.46500
H1564       H  0.85554559  0.99867187  0.00909270     0.07200
C1565       C  0.53117747  0.04178416  0.87530103    -0.06600
Cl1566     Cl  0.99621532  0.00402829  0.96704245    -0.49600
C1567       C  0.58055101  0.43178733  0.92305142     0.42900
H1568       H  0.54633470  0.17054011  0.98663449     0.07100
N1569       N  0.96632211  0.47021915  0.87462086    -0.46300
C1570       C  0.66372060  0.08548950  0.74090163     0.42800
N1571       N  0.60285780  0.06440133  0.71847982     0.01700
C1572       C  0.89062711  0.02484531  0.76003287    -0.06200
H1573       H  0.92806846  0.43317204  0.81448006     0.07100
C1574       C  0.93964414  0.35231801  0.71311077    -0.06600
Co1575     Co  0.52911441  0.06720095  0.75088972     0.74200
N1576       N  0.97266387  0.47973042  0.78335933    -0.25800
Co1577     Co  0.92951098  0.45979964  0.74867072     0.74100
C1578       C  0.92290903  0.33169180  0.73912316     0.42900
N1579       N  0.52353368  0.44508434  0.67757133     0.01300
N1580       N  0.93296990  0.40046697  0.73937528     0.01400
N1581       N  0.95793480  0.09563731  0.76096945    -0.46600
H1582       H  0.63168195  0.09723023  0.77900070     0.07100
N1583       N  0.01111587  0.02186754  0.78447757     0.01700
N1584       N  0.88706176  0.44323879  0.71537645     0.01400
C1585       C  0.82737383  0.42504264  0.69237522     0.43000
N1586       N  0.56256227  0.48643907  0.67852352    -0.25200
C1587       C  0.54736656  0.15369421  0.72053510    -0.06100
N1588       N  0.64534356  0.07238342  0.71661627    -0.46300
N1589       N  0.84515397  0.43677430  0.71689078    -0.46500
C1590       C  0.56330572  0.17418798  0.69439725     0.42800
N1591       N  0.96549002  0.06119162  0.75674282     0.01600
N1592       N  0.51749737  0.02720667  0.65072734    -0.25200
N1593       N  0.59198744  0.07151918  0.74289847    -0.25700
N1594       N  0.97900951  0.48518148  0.64948718     0.01300
H1595       H  0.56282417  0.07379154  0.61983892     0.07200
H1596       H  0.85951627  0.41314984  0.65440676     0.07200
N1597       N  0.92687407  0.01956891  0.75598340    -0.25800
N1598       N  0.94430503  0.39426235  0.71489873    -0.25400
N1599       N  0.55599220  0.10634550  0.69460309     0.01700
C1600       C  0.99626371  0.50067746  0.82659771     0.43000
C1601       C  0.59831322  0.48001050  0.67523468    -0.06600
N1602       N  0.89810648  0.43644212  0.69093814    -0.25400
H1603       H  0.94352471  0.33668780  0.69498496     0.07200
N1604       N  0.52555656  0.03544057  0.80952194    -0.46600
H1605       H  0.63483594  0.50701861  0.67611140     0.07200
C1606       C  0.49475012  0.00651508  0.60741589     0.42900
C1607       C  0.62881070  0.08552813  0.75856047    -0.06100
Co1608     Co  0.56017688  0.04701093  0.68543357     0.73800
N1609       N  0.53016839  0.40993431  0.67381262    -0.46300
C1610       C  0.91155369  0.07513840  0.76402527     0.43100
N1611       N  0.56861454  0.14308915  0.67939101    -0.46300
Co1612     Co  0.96039025  0.43986317  0.68311838     0.73900
C1613       C  0.86205808  0.42414085  0.67497035    -0.06600
C1614       C  0.96097907  0.46369470  0.80869163    -0.06200
N1615       N  0.54435942  0.11245334  0.71902570    -0.25700
N1616       N  0.91883565  0.36319422  0.75439287    -0.46500
H1617       H  0.85428907  0.99724345  0.75941460     0.07200
C1618       C  0.52972032  0.04335629  0.62545701    -0.06600
Cl1619     Cl  0.99484286  0.00347233  0.71704561    -0.49600
C1620       C  0.57641857  0.42938840  0.67138692     0.42900
H1621       H  0.54268882  0.16908955  0.73852838     0.07100
N1622       N  0.96503780  0.47170800  0.62436675    -0.46300
C1623       C  0.66205315  0.34285674  0.90653152     0.30300
C1624       C  0.65747956  0.34915790  0.96003316     0.30300
C1625       C  0.63820657  0.36828271  0.91755795    -0.05900
C1626       C  0.63626474  0.29548286  0.92084691    -0.06700
C1627       C  0.70955472  0.36888959  0.92081098    -0.06500
C1628       C  0.63562765  0.37187976  0.94501139    -0.05900
C1629       C  0.63294894  0.29985902  0.94798442    -0.06700
C1630       C  0.70635408  0.37426207  0.94785503    -0.06500
C1631       C  0.61537412  0.39798220  0.95005950    -0.31900
N1632       N  0.60434198  0.40792266  0.92654991     0.14600
C1633       C  0.61847085  0.39056148  0.90659066    -0.31900
H1634       H  0.61453299  0.39385709  0.88568866     0.16500
C1635       C  0.60773844  0.25615314  0.95840549    -0.30900
N1636       N  0.59642316  0.22419977  0.93861499     0.13300
C1637       C  0.61452340  0.24756293  0.91547347    -0.30900
C1638       C  0.75044421  0.40082482  0.95745981    -0.31200
N1639       N  0.78094678  0.40782122  0.93760721     0.13800
H1640       H  0.75962386  0.41168709  0.97793012     0.16400
C1641       C  0.75668425  0.38813672  0.91503641    -0.31200
H1642       H  0.77213046  0.38714436  0.89615475     0.16400
H1643       H  0.61149368  0.23096402  0.89631762     0.16400
H1644       H  0.60977318  0.41012775  0.96901892     0.16500
H1645       H  0.59918101  0.24845954  0.97919205     0.16400
C1646       C  0.66137587  0.34264368  0.65668997     0.30300
C1647       C  0.65582170  0.35113112  0.70998390     0.30300
C1648       C  0.63699372  0.36830971  0.66678004    -0.05900
C1649       C  0.63216755  0.29500617  0.67151202    -0.06700
C1650       C  0.70775363  0.36685268  0.67114090    -0.06500
C1651       C  0.63430351  0.37293593  0.69409385    -0.05900
C1652       C  0.62937238  0.30043043  0.69884930    -0.06700
C1653       C  0.70423825  0.37157801  0.69804041    -0.06500
C1654       C  0.60884607  0.39374777  0.69885741    -0.31900
N1655       N  0.59845432  0.40380508  0.67521534     0.14600
C1656       C  0.61389422  0.38712268  0.65552539    -0.31900
H1657       H  0.60877473  0.38887439  0.63461329     0.16500
C1658       C  0.60138933  0.25673750  0.70948604    -0.30900
N1659       N  0.58847439  0.22397918  0.68995313     0.13300
C1660       C  0.60559603  0.24652900  0.66658719    -0.30900
C1661       C  0.74791435  0.39379689  0.70819005    -0.31200
N1662       N  0.77854789  0.40261877  0.68812315     0.13800
H1663       H  0.75679813  0.40254263  0.72888346     0.16400
C1664       C  0.75464309  0.38618976  0.66511808    -0.31200
H1665       H  0.77000121  0.38826818  0.64570534     0.16400
H1666       H  0.59776862  0.22811999  0.64774714     0.16400
H1667       H  0.59808106  0.40070025  0.71792075     0.16500
H1668       H  0.59182383  0.24928419  0.73019161     0.16400
C1669       C  0.66928871  0.39586012  0.78177270    -0.11100
C1670       C  0.67078620  0.36001075  0.79400781     0.15500
C1671       C  0.67312557  0.32572731  0.77908258     0.02400
C1672       C  0.66757360  0.32427640  0.75215422    -0.15400
C1673       C  0.65947031  0.35619483  0.73959573    -0.10200
C1674       C  0.66765939  0.39650403  0.75433364     0.09100
C1675       C  0.66818794  0.35755706  0.82240043     0.10100
S1676       S  0.68309162  0.28303432  0.79318337    -0.24600
H1677       H  0.67161951  0.29882261  0.74082272     0.20400
S1678       S  0.68459776  0.45249928  0.74060081    -0.30300
H1679       H  0.67161131  0.42442410  0.79362001     0.10700
C1680       C  0.70560809  0.38964029  0.83783709     0.03900
C1681       C  0.70195074  0.38361058  0.86493813    -0.12600
C1682       C  0.66332698  0.34410928  0.87680508    -0.08200
C1683       C  0.62366562  0.31488138  0.86095294     0.07300
C1684       C  0.62749816  0.32115728  0.83379893    -0.13300
S1685       S  0.75811564  0.43767477  0.82312440    -0.30300
H1686       H  0.72855805  0.41170845  0.87672577     0.11600
S1687       S  0.56580432  0.27196521  0.87281515    -0.27400
H1688       H  0.59814842  0.29805212  0.82133255     0.08800
H1689       H  0.70844792  0.44922194  0.71829959     0.27300
H1690       H  0.78400151  0.45444402  0.84655021     0.22100
H1691       H  0.56589435  0.29542206  0.89617702     0.27400
H1692       H  0.70964120  0.31123051  0.81467255     0.16200
C1693       C  0.67493291  0.38232782  0.58583656    -0.11100
C1694       C  0.65425319  0.33890608  0.57294817     0.15500
C1695       C  0.64555902  0.29895908  0.58633203     0.02400
C1696       C  0.65496471  0.30300788  0.61306117    -0.15400
C1697       C  0.66778952  0.34441366  0.62716157    -0.10200
C1698       C  0.68322117  0.38625242  0.61275512     0.09100
C1699       C  0.65181010  0.33884171  0.54452840     0.10100
S1700       S  0.62276423  0.24222837  0.57048773    -0.24600
H1701       H  0.65261462  0.27369601  0.62257758     0.20400
S1702       S  0.71312742  0.44602574  0.62582977    -0.30300
H1703       H  0.68539609  0.41357771  0.57462356     0.10700
C1704       C  0.62143277  0.34827406  0.53195035     0.03900
C1705       C  0.62383727  0.35142003  0.50448929    -0.12600
C1706       C  0.65671452  0.34633914  0.98967213    -0.08200
C1707       C  0.68379764  0.33172106  0.00290713     0.07300
C1708       C  0.68264580  0.33109421  0.53015914    -0.13300
S1709       S  0.57881347  0.35461967  0.55076898    -0.30300
H1710       H  0.59798719  0.35480869  0.99479803     0.11600
S1711       S  0.71978319  0.31116533  0.98827467    -0.27400
H1712       H  0.70525667  0.32306382  0.54046383     0.08800
H1713       H  0.71890105  0.43991216  0.65231089     0.27300
H1714       H  0.56306947  0.36861891  0.52953015     0.22100
H1715       H  0.70147317  0.29726481  0.96293368     0.27400
H1716       H  0.59744775  0.24824773  0.55106329     0.16200
C1717       C  0.81057875  0.17460856  0.90365519    -0.11100
C1718       C  0.83202918  0.15518926  0.88937998     0.15500
C1719       C  0.85871907  0.14090874  0.90190442     0.02400
C1720       C  0.86261995  0.14567939  0.92916885    -0.15400
C1721       C  0.83758444  0.16094162  0.94429295    -0.10200
C1722       C  0.81341572  0.17876799  0.93089264     0.09100
C1723       C  0.83114455  0.15702736  0.86107989     0.10100
S1724       S  0.88906578  0.11721252  0.88420004    -0.24600
H1725       H  0.88672414  0.13897507  0.93797352     0.20400
S1726       S  0.78543003  0.20837376  0.94514992    -0.30300
H1727       H  0.79220846  0.18769659  0.89322064     0.09100
C1728       C  0.79055970  0.12690241  0.84726707     0.03900
C1729       C  0.79113567  0.13139649  0.82011072    -0.12600
C1730       C  0.83056998  0.16723611  0.80667434    -0.08200
C1731       C  0.87248367  0.19557225  0.82107703     0.07300
C1732       C  0.87132920  0.19118591  0.84826194    -0.13300
S1733       S  0.73898879  0.08116556  0.86396378    -0.30300
H1734       H  0.76177182  0.10414613  0.80948439     0.11600
S1735       S  0.93003474  0.23505351  0.80731713    -0.27400
H1736       H  0.90256875  0.21349987  0.85957326     0.08800
H1737       H  0.79513167  0.21220638  0.97205530     0.27300
H1738       H  0.70873810  0.06866750  0.84248459     0.22100
H1739       H  0.92736547  0.20837360  0.78489074     0.27400
H1740       H  0.85807270  0.09751347  0.86293822     0.16200
C1741       C  0.83147156  0.11809348  0.65128724    -0.11100
C1742       C  0.82827839  0.15358964  0.63975876     0.15500
C1743       C  0.81966907  0.18332835  0.65529150     0.02400
C1744       C  0.82246607  0.18226603  0.68229908    -0.15400
C1745       C  0.83242779  0.15125352  0.69430013    -0.10200
C1746       C  0.82944656  0.11412312  0.67864540     0.09100
C1747       C  0.83017002  0.15668389  0.61139421     0.10100
S1748       S  0.80398975  0.22240505  0.64199783    -0.24600
H1749       H  0.81529570  0.20515530  0.69416628     0.20400
S1750       S  0.81196395  0.05696220  0.69071031    -0.30300
H1751       H  0.83244655  0.09176718  0.63885901     0.10700
C1752       C  0.86527884  0.19681496  0.59865873     0.03900
C1753       C  0.86320222  0.19947580  0.57145834    -0.12600
C1754       C  0.82696091  0.16263287  0.55683217    -0.08200
C1755       C  0.79488959  0.11986052  0.56999197     0.07300
C1756       C  0.79550745  0.11885875  0.59724383    -0.13300
S1757       S  0.91396918  0.24329383  0.61677961    -0.30300
H1758       H  0.89212417  0.22883220  0.56164007     0.11600
S1759       S  0.75438243  0.06332985  0.55485987    -0.27400
H1760       H  0.76969771  0.08750868  0.60758865     0.08800
H1761       H  0.78492939  0.05772082  0.71211464     0.27300
H1762       H  0.93212866  0.27590765  0.59614526     0.22100
H1763       H  0.78054372  0.06587470  0.53234620     0.27400
H1764       H  0.78031633  0.19414286  0.61985325     0.16200
C1765       C  0.83077822  0.66540325  0.02731841     0.30300
C1766       C  0.83742088  0.65934007  0.47399476     0.30300
C1767       C  0.85497409  0.64003617  0.01697511    -0.05900
C1768       C  0.78441797  0.64159090  0.01261835    -0.06700
C1769       C  0.85913667  0.71313242  0.01316899    -0.06500
C1770       C  0.85761481  0.63537447  0.48960103    -0.05900
C1771       C  0.78818220  0.63609643  0.48571628    -0.06700
C1772       C  0.86339895  0.70877611  0.48602901    -0.06500
C1773       C  0.87786535  0.60894979  0.48549041    -0.31900
N1774       N  0.88922272  0.60053856  0.50930774     0.14600
C1775       C  0.87557640  0.61923809  0.02870244    -0.31900
H1776       H  0.87982980  0.61729431  0.04972322     0.16500
C1777       C  0.74419264  0.61228452  0.47569963    -0.30900
N1778       N  0.71369365  0.60590905  0.99548130     0.13300
C1779       C  0.73776234  0.62441317  0.01822214    -0.30900
C1780       C  0.88945322  0.75250561  0.47570652    -0.31200
N1781       N  0.89994321  0.78447478  0.99542917     0.13800
H1782       H  0.89832212  0.76018449  0.45494786     0.16400
C1783       C  0.88114550  0.76115388  0.01848721    -0.31200
H1784       H  0.88274160  0.77801269  0.03735811     0.16400
H1785       H  0.72255256  0.62493439  0.03728202     0.16400
H1786       H  0.88340981  0.59525178  0.46714568     0.16500
H1787       H  0.73513000  0.60210822  0.45515100     0.16400
C1788       C  0.83010961  0.66488511  0.27704717     0.30300
C1789       C  0.83524893  0.65504878  0.22389479     0.30300
C1790       C  0.85093051  0.63589775  0.26724097    -0.05900
C1791       C  0.78298917  0.64080535  0.26270114    -0.06700
C1792       C  0.85820532  0.71131135  0.26190923    -0.06500
C1793       C  0.85527725  0.63219393  0.24002745    -0.05900
C1794       C  0.78651874  0.63519623  0.23570525    -0.06700
C1795       C  0.86245387  0.70571170  0.23493531    -0.06500
C1796       C  0.88080470  0.61136748  0.23588943    -0.31900
N1797       N  0.88821360  0.59917346  0.25974113     0.14600
C1798       C  0.87043653  0.61404209  0.27907956    -0.31900
H1799       H  0.87300751  0.61062253  0.30014024     0.16500
C1800       C  0.74300155  0.61385132  0.22531241    -0.30900
N1801       N  0.71250720  0.60719851  0.24507659     0.13300
C1802       C  0.73628598  0.62444915  0.26801493    -0.30900
C1803       C  0.88879821  0.74959433  0.22435687    -0.31200
N1804       N  0.89818302  0.78208007  0.24369061     0.13800
H1805       H  0.89890605  0.75721593  0.20371859     0.16400
C1806       C  0.87894890  0.75918174  0.26677158    -0.31200
H1807       H  0.87988177  0.77598672  0.28556573     0.16400
H1808       H  0.72069150  0.62558357  0.28680633     0.16400
H1809       H  0.89405855  0.60625732  0.21718144     0.16500
H1810       H  0.73419467  0.60448233  0.20466113     0.16400
C1811       C  0.66487395  0.58443725  0.99132476     0.42800
N1812       N  0.60448547  0.56456077  0.46863903     0.01700
C1813       C  0.89186226  0.52638179  0.50931885    -0.06200
H1814       H  0.92753848  0.93545086  0.06431021     0.07100
C1815       C  0.94283760  0.85416827  0.46498383    -0.06600
Co1816     Co  0.53053256  0.56835246  0.00041706     0.74200
N1817       N  0.97302862  0.98153444  0.03330862    -0.25800
Co1818     Co  0.93041418  0.96127672  0.49855040     0.74100
C1819       C  0.92559634  0.83406274  0.49106844     0.42900
N1820       N  0.52596709  0.94525750  0.42867747     0.01300
N1821       N  0.93378486  0.90188687  0.49011006     0.01400
N1822       N  0.95914758  0.59718763  0.51018797    -0.46600
H1823       H  0.63297251  0.59716532  0.02920138     0.07100
N1824       N  0.01163130  0.52355213  0.03442593     0.01700
N1825       N  0.88833519  0.94436777  0.46520741     0.01400
C1826       C  0.82966111  0.92868681  0.44191125     0.43000
N1827       N  0.56455254  0.98696329  0.42928262    -0.25200
C1828       C  0.55087467  0.65448028  0.46889653    -0.06100
N1829       N  0.64663423  0.57160145  0.46700699    -0.46300
N1830       N  0.84728217  0.93997803  0.46643625    -0.46500
C1831       C  0.56900560  0.67461370  0.44284999     0.42800
N1832       N  0.96679063  0.56281374  0.50579154     0.01600
N1833       N  0.51923683  0.52610188  0.40066892    -0.25200
N1834       N  0.59354412  0.57208199  0.49295129    -0.25700
N1835       N  0.98067532  0.98410425  0.39965158     0.01300
H1836       H  0.56417931  0.57216436  0.36949790     0.07200
H1837       H  0.86128725  0.91522371  0.40414796     0.07200
N1838       N  0.92812691  0.52121302  0.50514356    -0.25800
N1839       N  0.94594487  0.89534178  0.46595401    -0.25400
N1840       N  0.55847579  0.60586537  0.44378348     0.01700
C1841       C  0.99575165  0.00268946  0.07656979     0.43000
C1842       C  0.60113526  0.98199747  0.42621694    -0.06600
N1843       N  0.89924905  0.93662673  0.44094794    -0.25400
H1844       H  0.94815717  0.83859447  0.44728430     0.07200
N1845       N  0.52557914  0.53729690  0.05953274    -0.46600
H1846       H  0.63738871  0.00983218  0.42674053     0.07200
C1847       C  0.99586949  0.50471263  0.35746792     0.42900
C1848       C  0.63014358  0.58549387  0.00875566    -0.06100
Co1849     Co  0.56194858  0.54670633  0.43547057     0.73800
N1850       N  0.53394943  0.91088442  0.42545216    -0.46300
C1851       C  0.91268894  0.57655029  0.51338361     0.43100
N1852       N  0.57329707  0.64265611  0.42831078    -0.46300
Co1853     Co  0.96199078  0.93968274  0.43365110     0.73900
C1854       C  0.86369724  0.92572326  0.42479625    -0.06600
C1855       C  0.96070603  0.96573606  0.05862802    -0.06200
N1856       N  0.54645242  0.61268117  0.46793922    -0.25700
N1857       N  0.92021575  0.86537391  0.00564694    -0.46500
H1858       H  0.85554584  0.49867199  0.50909270     0.07200
C1859       C  0.53117761  0.54178408  0.37530102    -0.06600
Cl1860     Cl  0.99621526  0.50402826  0.46704242    -0.49600
C1861       C  0.58055113  0.93178750  0.42305135     0.42900
H1862       H  0.54633463  0.67054018  0.48663446     0.07100
N1863       N  0.96632219  0.97021911  0.37462081    -0.46300
C1864       C  0.66372055  0.58548928  0.24090171     0.42800
N1865       N  0.60285782  0.56440124  0.21847983     0.01700
C1866       C  0.89062716  0.52484536  0.26003282    -0.06200
H1867       H  0.92806840  0.93317213  0.31448012     0.07100
C1868       C  0.93964408  0.85231796  0.21311075    -0.06600
Co1869     Co  0.52911442  0.56720100  0.25088971     0.74200
N1870       N  0.97266388  0.97973045  0.28335938    -0.25800
Co1871     Co  0.92951096  0.95979960  0.24867074     0.74100
C1872       C  0.92290895  0.83169177  0.23912314     0.42900
N1873       N  0.52353361  0.94508428  0.17757127     0.01300
N1874       N  0.93296989  0.90046696  0.23937528     0.01400
N1875       N  0.95793483  0.59563734  0.26096942    -0.46600
H1876       H  0.63168179  0.59723016  0.27900079     0.07100
N1877       N  0.01111586  0.52186756  0.28447766     0.01700
N1878       N  0.88706173  0.94323869  0.21537646     0.01400
C1879       C  0.82737386  0.92504270  0.19237522     0.43000
N1880       N  0.56256218  0.98643896  0.17852351    -0.25200
C1881       C  0.54736653  0.65369417  0.22053511    -0.06100
N1882       N  0.64534354  0.57238321  0.21661633    -0.46300
N1883       N  0.84515397  0.93677427  0.21689077    -0.46500
C1884       C  0.56330569  0.67418802  0.19439730     0.42800
N1885       N  0.96549006  0.56119169  0.25674279     0.01600
N1886       N  0.51749741  0.52720663  0.15072737    -0.25200
N1887       N  0.59198744  0.57151916  0.24289848    -0.25700
N1888       N  0.97900951  0.98518144  0.14948717     0.01300
H1889       H  0.56282415  0.57379152  0.11983894     0.07200
H1890       H  0.85951622  0.91314974  0.15440683     0.07200
N1891       N  0.92687408  0.51956894  0.25598336    -0.25800
N1892       N  0.94430499  0.89426233  0.21489872    -0.25400
N1893       N  0.55599216  0.60634550  0.19460307     0.01700
C1894       C  0.99626378  0.00067745  0.32659773     0.43000
C1895       C  0.59831317  0.98001045  0.17523466    -0.06600
N1896       N  0.89810643  0.93644200  0.19093816    -0.25400
H1897       H  0.94352458  0.83668774  0.19498502     0.07200
N1898       N  0.52555651  0.53544061  0.30952197    -0.46600
H1899       H  0.63483582  0.00701852  0.17611134     0.07200
C1900       C  0.49475017  0.50651511  0.10741590     0.42900
C1901       C  0.62881062  0.58552799  0.25856049    -0.06100
Co1902     Co  0.56017688  0.54701088  0.18543359     0.73800
N1903       N  0.53016831  0.90993422  0.17381258    -0.46300
C1904       C  0.91155372  0.57513843  0.26402527     0.43100
N1905       N  0.56861454  0.64308918  0.17939103    -0.46300
Co1906     Co  0.96039020  0.93986309  0.18311835     0.73900
C1907       C  0.86205802  0.92414072  0.17497035    -0.06600
C1908       C  0.96097905  0.96369474  0.30869167    -0.06200
N1909       N  0.54435934  0.61245334  0.21902570    -0.25700
N1910       N  0.91883561  0.86319420  0.25439286    -0.46500
H1911       H  0.85428905  0.49724345  0.25941455     0.07200
C1912       C  0.52972038  0.54335630  0.12545703    -0.06600
Cl1913     Cl  0.99484288  0.50347242  0.21704557    -0.49600
C1914       C  0.57641849  0.92938836  0.17138697     0.42900
H1915       H  0.54268877  0.66908959  0.23852851     0.07100
N1916       N  0.96503781  0.97170802  0.12436675    -0.46300
C1917       C  0.66205311  0.84285672  0.40653151     0.30300
C1918       C  0.65747953  0.84915794  0.46003315     0.30300
C1919       C  0.63820652  0.86828270  0.41755791    -0.05900
C1920       C  0.63626475  0.79548290  0.42084694    -0.06700
C1921       C  0.70955468  0.86888959  0.42081095    -0.06500
C1922       C  0.63562758  0.87187974  0.44501137    -0.05900
C1923       C  0.63294892  0.79985906  0.44798444    -0.06700
C1924       C  0.70635406  0.87426212  0.44785499    -0.06500
C1925       C  0.61537409  0.89798221  0.45005944    -0.31900
N1926       N  0.60434213  0.90792287  0.42654988     0.14600
C1927       C  0.61847095  0.89056161  0.40659061    -0.31900
H1928       H  0.61453315  0.89385728  0.38568862     0.16500
C1929       C  0.60773843  0.75615319  0.45840553    -0.30900
N1930       N  0.59642323  0.72419984  0.43861506     0.13300
C1931       C  0.61452355  0.74756300  0.41547351    -0.30900
C1932       C  0.75044421  0.90082491  0.45745976    -0.31200
N1933       N  0.78094678  0.90782126  0.43760715     0.13800
H1934       H  0.75962389  0.91168720  0.47793001     0.16400
C1935       C  0.75668422  0.88813675  0.41503636    -0.31200
H1936       H  0.77213044  0.88714444  0.39615467     0.16400
H1937       H  0.61149394  0.73096418  0.39631773     0.16400
H1938       H  0.60977301  0.91012772  0.46901896     0.16500
H1939       H  0.59918094  0.74845957  0.47919212     0.16400
C1940       C  0.66137589  0.84264375  0.15669002     0.30300
C1941       C  0.65582179  0.85113120  0.20998393     0.30300
C1942       C  0.63699372  0.86830977  0.16678008    -0.05900
C1943       C  0.63216766  0.79500622  0.17151209    -0.06700
C1944       C  0.70775369  0.86685287  0.17114091    -0.06500
C1945       C  0.63430346  0.87293591  0.19409390    -0.05900
C1946       C  0.62937251  0.80043049  0.19884937    -0.06700
C1947       C  0.70423833  0.87157816  0.19804043    -0.06500
C1948       C  0.60884597  0.89374767  0.19885746    -0.31900
N1949       N  0.59845430  0.90380512  0.17521545     0.14600
C1950       C  0.61389426  0.88712283  0.15552543    -0.31900
H1951       H  0.60877475  0.88887459  0.13461343     0.16500
C1952       C  0.60138937  0.75673757  0.20948613    -0.30900
N1953       N  0.58847441  0.72397920  0.18995321     0.13300
C1954       C  0.60559616  0.74652904  0.16658730    -0.30900
C1955       C  0.74791440  0.89379684  0.20819006    -0.31200
N1956       N  0.77854794  0.90261887  0.18812317     0.13800
H1957       H  0.75679820  0.90254240  0.22888357     0.16400
C1958       C  0.75464316  0.88618998  0.16511808    -0.31200
H1959       H  0.77000133  0.88826847  0.14570534     0.16400
H1960       H  0.59776876  0.72811996  0.14774724     0.16400
H1961       H  0.59808089  0.90070007  0.21792091     0.16500
H1962       H  0.59182377  0.74928426  0.23019168     0.16400
C1963       C  0.66928869  0.89586011  0.28177272    -0.11100
C1964       C  0.67078611  0.86001066  0.29400782     0.15500
C1965       C  0.67312548  0.82572723  0.27908263     0.02400
C1966       C  0.66757369  0.82427642  0.25215424    -0.15400
C1967       C  0.65947051  0.85619496  0.23959575    -0.10200
C1968       C  0.66765957  0.89650413  0.25433363     0.09100
C1969       C  0.66818790  0.85755706  0.32240044     0.10100
S1970       S  0.68309149  0.78303420  0.29318346    -0.24600
H1971       H  0.67161963  0.79882272  0.24082278     0.20400
S1972       S  0.68459781  0.95249937  0.24060077    -0.30300
H1973       H  0.67161120  0.92442390  0.29361999     0.10700
C1974       C  0.70560799  0.88964027  0.33783710     0.03900
C1975       C  0.70195069  0.88361056  0.36493814    -0.12600
C1976       C  0.66332690  0.84410922  0.37680506    -0.08200
C1977       C  0.62366557  0.81488135  0.36095294     0.07300
C1978       C  0.62749806  0.82115728  0.33379892    -0.13300
S1979       S  0.75811560  0.93767471  0.32312447    -0.30300
H1980       H  0.72855791  0.91170833  0.37672571     0.11600
S1981       S  0.56580425  0.77196508  0.37281508    -0.27400
H1982       H  0.59814850  0.79805227  0.32133260     0.08800
H1983       H  0.70844787  0.94922200  0.21829950     0.27300
H1984       H  0.78400140  0.95444405  0.34655030     0.22100
H1985       H  0.56589426  0.79542193  0.39617695     0.27400
H1986       H  0.70964120  0.81123048  0.31467259     0.16200
C1987       C  0.67493303  0.88232785  0.08583658    -0.11100
C1988       C  0.65425325  0.83890612  0.07294820     0.15500
C1989       C  0.64555902  0.79895914  0.08633209     0.02400
C1990       C  0.65496464  0.80300789  0.11306124    -0.15400
C1991       C  0.66778948  0.84441367  0.12716162    -0.10200
C1992       C  0.68322116  0.88625237  0.11275515     0.09100
C1993       C  0.65181015  0.83884180  0.04452843     0.10100
S1994       S  0.62276425  0.74222849  0.07048782    -0.24600
H1995       H  0.65261453  0.77369601  0.12257766     0.20400
S1996       S  0.71312735  0.94602569  0.12582970    -0.30300
H1997       H  0.68539628  0.91357769  0.07462362     0.10700
C1998       C  0.62143281  0.84827416  0.03195039     0.03900
C1999       C  0.62383720  0.85142000  0.00448932    -0.12600
C2000       C  0.65671451  0.84633915  0.48967214    -0.08200
C2001       C  0.68379768  0.83172115  0.50290713     0.07300
C2002       C  0.68264572  0.83109415  0.03015914    -0.13300
S2003       S  0.57881339  0.85461954  0.05076907    -0.30300
H2004       H  0.59798738  0.85480891  0.49479812     0.11600
S2005       S  0.71978330  0.81116551  0.48827472    -0.27400
H2006       H  0.70525657  0.82306369  0.04046383     0.08800
H2007       H  0.71890102  0.93991222  0.15231083     0.27300
H2008       H  0.56306953  0.86861900  0.02953027     0.22100
H2009       H  0.70147338  0.79726512  0.46293371     0.27400
H2010       H  0.59744772  0.74824785  0.05106342     0.16200
C2011       C  0.81057878  0.67460839  0.40365522    -0.11100
C2012       C  0.83202933  0.65518922  0.38938001     0.15500
C2013       C  0.85871936  0.64090885  0.40190450     0.02400
C2014       C  0.86262008  0.64567944  0.42916892    -0.15400
C2015       C  0.83758457  0.66094166  0.44429299    -0.10200
C2016       C  0.81341576  0.67876795  0.43089265     0.09100
C2017       C  0.83114464  0.65702721  0.36107990     0.10100
S2018       S  0.88906616  0.61721272  0.38420014    -0.24600
H2019       H  0.88672434  0.63897506  0.43797371     0.20400
S2020       S  0.78542994  0.70837360  0.44514998    -0.30300
H2021       H  0.79220831  0.68769637  0.39322059     0.09100
C2022       C  0.79055969  0.62690241  0.34726711     0.03900
C2023       C  0.79113565  0.63139646  0.32011074    -0.12600
C2024       C  0.83056998  0.66723608  0.30667434    -0.08200
C2025       C  0.87248366  0.69557228  0.32107703     0.07300
C2026       C  0.87132929  0.69118576  0.34826191    -0.13300
S2027       S  0.73898877  0.58116551  0.36396386    -0.30300
H2028       H  0.76177182  0.60414608  0.30948443     0.11600
S2029       S  0.93003476  0.73505370  0.30731720    -0.27400
H2030       H  0.90256885  0.71349961  0.35957316     0.08800
H2031       H  0.79513190  0.71220667  0.47205534     0.27300
H2032       H  0.70873808  0.56866719  0.34248464     0.22100
H2033       H  0.92736551  0.70837375  0.28489084     0.27400
H2034       H  0.85807309  0.59751361  0.36293833     0.16200
C2035       C  0.83147155  0.61809354  0.15128720    -0.11100
C2036       C  0.82827830  0.65358967  0.13975876     0.15500
C2037       C  0.81966897  0.68332837  0.15529151     0.02400
C2038       C  0.82246607  0.68226605  0.18229908    -0.15400
C2039       C  0.83242773  0.65125348  0.19430011    -0.10200
C2040       C  0.82944653  0.61412312  0.17864535     0.09100
C2041       C  0.83016994  0.65668391  0.11139422     0.10100
S2042       S  0.80398983  0.72240519  0.14199778    -0.24600
H2043       H  0.81529581  0.70515545  0.19416633     0.20400
S2044       S  0.81196427  0.55696231  0.19071022    -0.30300
H2045       H  0.83244664  0.59176733  0.13885894     0.10700
C2046       C  0.86527877  0.69681492  0.09865875     0.03900
C2047       C  0.86320223  0.69947581  0.07145836    -0.12600
C2048       C  0.82696092  0.66263290  0.05683218    -0.08200
C2049       C  0.79488957  0.61986061  0.06999200     0.07300
C2050       C  0.79550739  0.61885882  0.09724385    -0.13300
S2051       S  0.91396888  0.74329378  0.11677972    -0.30300
H2052       H  0.89212410  0.72883218  0.06164011     0.11600
S2053       S  0.75438241  0.56332996  0.05485995    -0.27400
H2054       H  0.76969762  0.58750876  0.10758868     0.08800
H2055       H  0.78492958  0.55772075  0.21211453     0.27300
H2056       H  0.93212875  0.77590744  0.09614529     0.22100
H2057       H  0.78054363  0.56587481  0.03234625     0.27400
H2058       H  0.78031626  0.69414294  0.11985324     0.16200
C2059       C  0.83077817  0.66540322  0.52731842     0.30300
C2060       C  0.83742088  0.65934006  0.97399473     0.30300
C2061       C  0.85497405  0.64003615  0.51697515    -0.05900
C2062       C  0.78441792  0.64159085  0.51261834    -0.06700
C2063       C  0.85913663  0.71313241  0.51316903    -0.06500
C2064       C  0.85761481  0.63537448  0.98960099    -0.05900
C2065       C  0.78818223  0.63609644  0.98571630    -0.06700
C2066       C  0.86339889  0.70877610  0.98602896    -0.06500
C2067       C  0.87786530  0.60894974  0.98549035    -0.31900
N2068       N  0.88922270  0.60053851  0.00930767     0.14600
C2069       C  0.87557635  0.61923808  0.52870250    -0.31900
H2070       H  0.87982973  0.61729432  0.54972329     0.16500
C2071       C  0.74419267  0.61228442  0.97569966    -0.30900
N2072       N  0.71369362  0.60590910  0.49548126     0.13300
C2073       C  0.73776230  0.62441317  0.51822212    -0.30900
C2074       C  0.88945301  0.75250557  0.97570643    -0.31200
N2075       N  0.89994334  0.78447481  0.49542926     0.13800
H2076       H  0.89832175  0.76018442  0.95494777     0.16400
C2077       C  0.88114547  0.76115386  0.51848728    -0.31200
H2078       H  0.88274150  0.77801265  0.53735818     0.16400
H2079       H  0.72255251  0.62493442  0.53728196     0.16400
H2080       H  0.88340964  0.59525165  0.96714560     0.16500
H2081       H  0.73513005  0.60210800  0.95515109     0.16400
C2082       C  0.83010965  0.66488507  0.77704722     0.30300
C2083       C  0.83524887  0.65504880  0.72389484     0.30300
C2084       C  0.85093050  0.63589772  0.76724097    -0.05900
C2085       C  0.78298917  0.64080530  0.76270122    -0.06700
C2086       C  0.85820530  0.71131133  0.76190931    -0.06500
C2087       C  0.85527721  0.63219393  0.74002745    -0.05900
C2088       C  0.78651870  0.63519622  0.73570532    -0.06700
C2089       C  0.86245376  0.70571170  0.73493539    -0.06500
C2090       C  0.88080464  0.61136748  0.73588940    -0.31900
N2091       N  0.88821356  0.59917342  0.75974106     0.14600
C2092       C  0.87043654  0.61404204  0.77907953    -0.31900
H2093       H  0.87300759  0.61062250  0.80014019     0.16500
C2094       C  0.74300149  0.61385128  0.72531250    -0.30900
N2095       N  0.71250716  0.60719846  0.74507669     0.13300
C2096       C  0.73628597  0.62444907  0.76801502    -0.30900
C2097       C  0.88879794  0.74959432  0.72435694    -0.31200
N2098       N  0.89818277  0.78208004  0.74369069     0.13800
H2099       H  0.89890574  0.75721591  0.70371867     0.16400
C2100       C  0.87894881  0.75918171  0.76677168    -0.31200
H2101       H  0.87988179  0.77598668  0.78556585     0.16400
H2102       H  0.72069153  0.62558348  0.78680643     0.16400
H2103       H  0.89405851  0.60625736  0.71718134     0.16500
H2104       H  0.73419459  0.60448232  0.70466121     0.16400
C2105       C  0.66487393  0.58443738  0.49132478     0.42800
N2106       N  0.60448547  0.56456054  0.96863901     0.01700
C2107       C  0.89186213  0.52638164  0.00931875    -0.06200
H2108       H  0.92753861  0.93545072  0.56431026     0.07100
C2109       C  0.94283748  0.85416827  0.96498376    -0.06600
Co2110     Co  0.53053245  0.56835240  0.50041705     0.74200
N2111       N  0.97302874  0.98153452  0.53330866    -0.25800
Co2112     Co  0.93041406  0.96127673  0.99855039     0.74100
C2113       C  0.92559609  0.83406269  0.99106833     0.42900
N2114       N  0.52596708  0.94525748  0.92867744     0.01300
N2115       N  0.93378473  0.90188686  0.99011002     0.01400
N2116       N  0.95914748  0.59718749  0.01018802    -0.46600
H2117       H  0.63297240  0.59716531  0.52920148     0.07100
N2118       N  0.01163128  0.52355211  0.53442593     0.01700
N2119       N  0.88833519  0.94436801  0.96520742     0.01400
C2120       C  0.82966119  0.92868712  0.94191121     0.43000
N2121       N  0.56455251  0.98696326  0.92928254    -0.25200
C2122       C  0.55087493  0.65448036  0.96889660    -0.06100
N2123       N  0.64663418  0.57160114  0.96700700    -0.46300
N2124       N  0.84728219  0.93997835  0.96643623    -0.46500
C2125       C  0.56900586  0.67461379  0.94285006     0.42800
N2126       N  0.96679054  0.56281362  0.00579154     0.01600
N2127       N  0.51923684  0.52610194  0.90066893    -0.25200
N2128       N  0.59354416  0.57208193  0.99295126    -0.25700
N2129       N  0.98067536  0.98410429  0.89965160     0.01300
H2130       H  0.56417937  0.57216440  0.86949789     0.07200
H2131       H  0.86128730  0.91522386  0.90414794     0.07200
N2132       N  0.92812683  0.52121292  0.00514351    -0.25800
N2133       N  0.94594483  0.89534182  0.96595401    -0.25400
N2134       N  0.55847586  0.60586539  0.94378348     0.01700
C2135       C  0.99575174  0.00268955  0.57656984     0.43000
C2136       C  0.60113527  0.98199746  0.92621698    -0.06600
N2137       N  0.89924905  0.93662691  0.94094797    -0.25400
H2138       H  0.94815697  0.83859444  0.94728419     0.07200
N2139       N  0.52557909  0.53729688  0.55953277    -0.46600
H2140       H  0.63738864  0.00983210  0.92674063     0.07200
C2141       C  0.99586961  0.50471258  0.85746791     0.42900
C2142       C  0.63014350  0.58549387  0.50875570    -0.06100
Co2143     Co  0.56194858  0.54670629  0.93547054     0.73800
N2144       N  0.53394943  0.91088439  0.92545222    -0.46300
C2145       C  0.91268882  0.57655015  0.01338354     0.43100
N2146       N  0.57329718  0.64265616  0.92831079    -0.46300
Co2147     Co  0.96199077  0.93968281  0.93365112     0.73900
C2148       C  0.86369727  0.92572342  0.92479628    -0.06600
C2149       C  0.96070624  0.96573613  0.55862804    -0.06200
N2150       N  0.54645256  0.61268118  0.96793922    -0.25700
N2151       N  0.92021601  0.86537401  0.50564700    -0.46500
H2152       H  0.85554569  0.49867178  0.00909262     0.07200
C2153       C  0.53117764  0.54178407  0.87530103    -0.06600
Cl2154     Cl  0.99621528  0.50402827  0.96704246    -0.49600
C2155       C  0.58055111  0.93178748  0.92305142     0.42900
H2156       H  0.54633503  0.67054024  0.98663451     0.07100
N2157       N  0.96632217  0.97021914  0.87462085    -0.46300
C2158       C  0.66372049  0.58548926  0.74090180     0.42800
N2159       N  0.60285776  0.56440128  0.71847994     0.01700
C2160       C  0.89062711  0.52484532  0.76003287    -0.06200
H2161       H  0.92806838  0.93317212  0.81448007     0.07100
C2162       C  0.93964397  0.85231793  0.71311084    -0.06600
Co2163     Co  0.52911442  0.56720103  0.75088977     0.74200
N2164       N  0.97266383  0.97973041  0.78335934    -0.25800
Co2165     Co  0.92951089  0.95979958  0.74867075     0.74100
C2166       C  0.92290889  0.83169176  0.73912324     0.42900
N2167       N  0.52353367  0.94508431  0.67757128     0.01300
N2168       N  0.93296976  0.90046692  0.73937533     0.01400
N2169       N  0.95793480  0.59563733  0.76096933    -0.46600
H2170       H  0.63168181  0.59723028  0.77900083     0.07100
N2171       N  0.01111591  0.52186763  0.78447758     0.01700
N2172       N  0.88706164  0.94323870  0.71537649     0.01400
C2173       C  0.82737379  0.92504280  0.69237526     0.43000
N2174       N  0.56256227  0.98643906  0.67852344    -0.25200
C2175       C  0.54736673  0.65369434  0.72053519    -0.06100
N2176       N  0.64534349  0.57238324  0.71661642    -0.46300
N2177       N  0.84515393  0.93677439  0.71689082    -0.46500
C2178       C  0.56330593  0.67418810  0.69439734     0.42800
N2179       N  0.96549003  0.56119166  0.75674279     0.01600
N2180       N  0.51749742  0.52720668  0.65072744    -0.25200
N2181       N  0.59198739  0.57151915  0.74289857    -0.25700
N2182       N  0.97900945  0.98518154  0.64948724     0.01300
H2183       H  0.56282402  0.57379152  0.61983902     0.07200
H2184       H  0.85951615  0.91315002  0.65440675     0.07200
N2185       N  0.92687405  0.51956890  0.75598341    -0.25800
N2186       N  0.94430478  0.89426225  0.71489876    -0.25400
N2187       N  0.55599217  0.60634554  0.69460315     0.01700
C2188       C  0.99626373  0.00067740  0.82659771     0.43000
C2189       C  0.59831319  0.98001050  0.67523449    -0.06600
N2190       N  0.89810630  0.93644201  0.69093816    -0.25400
H2191       H  0.94352452  0.83668771  0.69498510     0.07200
N2192       N  0.52555656  0.53544067  0.80952194    -0.46600
H2193       H  0.63483597  0.00701871  0.67611117     0.07200
C2194       C  0.49475013  0.50651516  0.60741597     0.42900
C2195       C  0.62881057  0.58552797  0.75856059    -0.06100
Co2196     Co  0.56017689  0.54701096  0.68543367     0.73800
N2197       N  0.53016838  0.90993432  0.67381248    -0.46300
C2198       C  0.91155370  0.57513842  0.76402518     0.43100
N2199       N  0.56861462  0.64308922  0.67939108    -0.46300
Co2200     Co  0.96039008  0.93986311  0.68311841     0.73900
C2201       C  0.86205797  0.92414094  0.67497037    -0.06600
C2202       C  0.96097899  0.96369469  0.80869164    -0.06200
N2203       N  0.54435943  0.61245340  0.71902576    -0.25700
N2204       N  0.91883559  0.86319422  0.75439295    -0.46500
H2205       H  0.85428901  0.49724345  0.75941451     0.07200
C2206       C  0.52972039  0.54335637  0.62545709    -0.06600
Cl2207     Cl  0.99484289  0.50347246  0.71704551    -0.49600
C2208       C  0.57641856  0.92938841  0.67138672     0.42900
H2209       H  0.54268894  0.66908970  0.73852844     0.07100
N2210       N  0.96503779  0.97170815  0.62436682    -0.46300
C2211       C  0.66205311  0.84285678  0.90653153     0.30300
C2212       C  0.65747967  0.84915813  0.96003318     0.30300
C2213       C  0.63820647  0.86828270  0.91755796    -0.05900
C2214       C  0.63626480  0.79548298  0.92084700    -0.06700
C2215       C  0.70955472  0.86888976  0.92081096    -0.06500
C2216       C  0.63562762  0.87187983  0.94501140    -0.05900
C2217       C  0.63294907  0.79985920  0.94798450    -0.06700
C2218       C  0.70635416  0.87426238  0.94785499    -0.06500
C2219       C  0.61537422  0.89798239  0.95005950    -0.31900
N2220       N  0.60434214  0.90792288  0.92654991     0.14600
C2221       C  0.61847088  0.89056157  0.90659065    -0.31900
H2222       H  0.61453306  0.89385720  0.88568865     0.16500
C2223       C  0.60773875  0.75615335  0.95840561    -0.30900
N2224       N  0.59642351  0.72419996  0.93861517     0.13300
C2225       C  0.61452365  0.74756305  0.91547359    -0.30900
C2226       C  0.75044435  0.90082532  0.95745972    -0.31200
N2227       N  0.78094687  0.90782167  0.93760711     0.13800
H2228       H  0.75962405  0.91168762  0.97792997     0.16400
C2229       C  0.75668428  0.88813693  0.91503633    -0.31200
H2230       H  0.77213035  0.88714444  0.89615474     0.16400
H2231       H  0.61149397  0.73096414  0.89631783     0.16400
H2232       H  0.60977332  0.91012801  0.96901894     0.16500
H2233       H  0.59918137  0.74845977  0.97919226     0.16400
C2234       C  0.66137596  0.84264375  0.65668998     0.30300
C2235       C  0.65582171  0.85113125  0.70998391     0.30300
C2236       C  0.63699384  0.86830983  0.66678001    -0.05900
C2237       C  0.63216766  0.79500624  0.67151208    -0.06700
C2238       C  0.70775368  0.86685284  0.67114093    -0.06500
C2239       C  0.63430349  0.87293600  0.69409381    -0.05900
C2240       C  0.62937251  0.80043054  0.69884937    -0.06700
C2241       C  0.70423827  0.87157820  0.69804046    -0.06500
C2242       C  0.60884590  0.89374769  0.69885729    -0.31900
N2243       N  0.59845432  0.90380512  0.67521524     0.14600
C2244       C  0.61389439  0.88712282  0.65552528    -0.31900
H2245       H  0.60877498  0.88887450  0.63461329     0.16500
C2246       C  0.60138962  0.75673765  0.70948614    -0.30900
N2247       N  0.58847468  0.72397928  0.68995327     0.13300
C2248       C  0.60559623  0.74652905  0.66658731    -0.30900
C2249       C  0.74791433  0.89379707  0.70819009    -0.31200
N2250       N  0.77854789  0.90261902  0.68812324     0.13800
H2251       H  0.75679811  0.90254279  0.72888362     0.16400
C2252       C  0.75464313  0.88618997  0.66511812    -0.31200
H2253       H  0.77000127  0.88826836  0.64570542     0.16400
H2254       H  0.59776874  0.72811992  0.64774729     0.16400
H2255       H  0.59808061  0.90069996  0.71792068     0.16500
H2256       H  0.59182406  0.74928434  0.73019180     0.16400
C2257       C  0.66928802  0.89586000  0.78177275    -0.11100
C2258       C  0.67078588  0.86001082  0.79400785     0.15500
C2259       C  0.67312563  0.82572761  0.77908263     0.02400
C2260       C  0.66757377  0.82427671  0.75215425    -0.15400
C2261       C  0.65947028  0.85619499  0.73959575    -0.10200
C2262       C  0.66765893  0.89650399  0.75433367     0.09100
C2263       C  0.66818766  0.85755717  0.82240045     0.10100
S2264       S  0.68309211  0.78303487  0.79318337    -0.24600
H2265       H  0.67161993  0.79882316  0.74082279     0.20400
S2266       S  0.68459704  0.95249914  0.74060083    -0.30300
H2267       H  0.67161024  0.92442373  0.79362006     0.10700
C2268       C  0.70560772  0.88964059  0.83783711     0.03900
C2269       C  0.70195049  0.88361077  0.86493814    -0.12600
C2270       C  0.66332688  0.84410931  0.87680508    -0.08200
C2271       C  0.62366558  0.81488128  0.86095295     0.07300
C2272       C  0.62749802  0.82115716  0.83379894    -0.13300
S2273       S  0.75811518  0.93767523  0.82312441    -0.30300
H2274       H  0.72855780  0.91170862  0.87672578     0.11600
S2275       S  0.56580438  0.77196496  0.87281517    -0.27400
H2276       H  0.59814842  0.79805186  0.82133259     0.08800
H2277       H  0.70844737  0.94922195  0.71829965     0.27300
H2278       H  0.78400095  0.95444482  0.84655024     0.22100
H2279       H  0.56589430  0.79542195  0.89617696     0.27400
H2280       H  0.70964144  0.81123109  0.81467261     0.16200
C2281       C  0.67493298  0.88232766  0.58583650    -0.11100
C2282       C  0.65425328  0.83890587  0.57294816     0.15500
C2283       C  0.64555908  0.79895894  0.58633209     0.02400
C2284       C  0.65496469  0.80300778  0.61306124    -0.15400
C2285       C  0.66778964  0.84441365  0.62716157    -0.10200
C2286       C  0.68322120  0.88625230  0.61275506     0.09100
C2287       C  0.65180997  0.83884141  0.54452840     0.10100
S2288       S  0.62276405  0.74222814  0.57048792    -0.24600
H2289       H  0.65261446  0.77369596  0.62257767     0.20400
S2290       S  0.71312760  0.94602565  0.62582958    -0.30300
H2291       H  0.68539610  0.91357742  0.57462349     0.10700
C2292       C  0.62143270  0.84827391  0.53195043     0.03900
C2293       C  0.62383715  0.85141993  0.50448934    -0.12600
C2294       C  0.65671468  0.84633943  0.98967215    -0.08200
C2295       C  0.68379802  0.83172161  0.00290720     0.07300
C2296       C  0.68264546  0.83109369  0.53015907    -0.13300
S2297       S  0.57881359  0.85461982  0.55076914    -0.30300
H2298       H  0.59798710  0.85480875  0.99479800     0.11600
S2299       S  0.71978387  0.81116620  0.98827482    -0.27400
H2300       H  0.70525627  0.82306317  0.54046370     0.08800
H2301       H  0.71890095  0.93991215  0.65231076     0.27300
H2302       H  0.56306954  0.86861899  0.52953030     0.22100
H2303       H  0.70147360  0.79726538  0.96293390     0.27400
H2304       H  0.59744758  0.74824756  0.55106350     0.16200
C2305       C  0.81057862  0.67460771  0.90365509    -0.11100
C2306       C  0.83202947  0.65518874  0.88937998     0.15500
C2307       C  0.85871981  0.64090887  0.90190454     0.02400
C2308       C  0.86262054  0.64567969  0.92916897    -0.15400
C2309       C  0.83758466  0.66094160  0.94429295    -0.10200
C2310       C  0.81341564  0.67876754  0.93089251     0.09100
C2311       C  0.83114490  0.65702668  0.86107987     0.10100
S2312       S  0.88906693  0.61721303  0.88420025    -0.24600
H2313       H  0.88672505  0.63897576  0.93797380     0.20400
S2314       S  0.78542972  0.70837319  0.94514969    -0.30300
H2315       H  0.79220798  0.68769537  0.89322040     0.09100
C2316       C  0.79055997  0.62690200  0.84726707     0.03900
C2317       C  0.79113583  0.63139632  0.82011075    -0.12600
C2318       C  0.83057014  0.66723601  0.80667438    -0.08200
C2319       C  0.87248389  0.69557208  0.82107704     0.07300
C2320       C  0.87132953  0.69118540  0.84826193    -0.13300
S2321       S  0.73898907  0.58116506  0.86396377    -0.30300
H2322       H  0.76177199  0.60414607  0.80948445     0.11600
S2323       S  0.93003493  0.73505359  0.80731713    -0.27400
H2324       H  0.90256903  0.71349926  0.85957322     0.08800
H2325       H  0.79513187  0.71220658  0.97205503     0.27300
H2326       H  0.70873827  0.56866733  0.84248466     0.22100
H2327       H  0.92736563  0.70837366  0.78489075     0.27400
H2328       H  0.85807385  0.59751358  0.86293845     0.16200
C2329       C  0.83147100  0.61809343  0.65128725    -0.11100
C2330       C  0.82827786  0.65358968  0.63975883     0.15500
C2331       C  0.81966858  0.68332834  0.65529164     0.02400
C2332       C  0.82246583  0.68226606  0.68229920    -0.15400
C2333       C  0.83242765  0.65125356  0.69430017    -0.10200
C2334       C  0.82944623  0.61412311  0.67864541     0.09100
C2335       C  0.83016950  0.65668402  0.61139427     0.10100
S2336       S  0.80398901  0.72240488  0.64199804    -0.24600
H2337       H  0.81529548  0.70515536  0.69416648     0.20400
S2338       S  0.81196422  0.55696235  0.69071030    -0.30300
H2339       H  0.83244591  0.59176719  0.63885903     0.10700
C2340       C  0.86527831  0.69681515  0.59865882     0.03900
C2341       C  0.86320196  0.69947591  0.57145841    -0.12600
C2342       C  0.82696086  0.66263291  0.55683218    -0.08200
C2343       C  0.79488950  0.61986058  0.56999199     0.07300
C2344       C  0.79550712  0.61885884  0.59724385    -0.13300
S2345       S  0.91396838  0.74329406  0.61677981    -0.30300
H2346       H  0.89212404  0.72883235  0.56164015     0.11600
S2347       S  0.75438241  0.56332995  0.55485987    -0.27400
H2348       H  0.76969736  0.58750875  0.60758865     0.08800
H2349       H  0.78492951  0.55772066  0.71211464     0.27300
H2350       H  0.93212806  0.77590781  0.59614542     0.22100
H2351       H  0.78054372  0.56587477  0.53234622     0.27400
H2352       H  0.78031571  0.69414281  0.61985340     0.16200
loop_ 
_geom_bond_atom_site_label_1 
_geom_bond_atom_site_label_2 
_geom_bond_distance 
_geom_bond_site_symmetry_2 
_ccdc_geom_bond_type 
C1            C3   1.537       .  S
C1            C5   1.550       .  S
C1            C4   1.536       .  S
C1          C284   1.492       .  S
C2            C6   1.545       .  S
C2            C8   1.527       .  S
C2            C7   1.527       .  S
C2          C251   1.500       .  S
C3           C11   1.375       .  A
C3          C300   1.391   1_554  A
C4           C15   1.389       .  A
C4          C301   1.376   1_554  A
C5           C19   1.396       .  A
C5          C302   1.384   1_554  A
C6            C9   1.389       .  A
C6          C297   1.391       .  A
C7           C13   1.369       .  A
C7          C298   1.376       .  A
C8           C16   1.363       .  A
C8          C299   1.384       .  A
C9           N10   1.353       .  A
C9           H22   1.078       .  S
N10         C305   1.347       .  A
N10          C87   1.422       .  S
C11         N304   1.347       .  A
C11          H12   1.082       .  S
C13         N308   1.352       .  A
C13          H23   1.083       .  S
N14          C15   1.357   1_556  A
N14         C307   1.352       .  A
N14          C47   1.431       .  S
C15          H21   1.082       .  S
C16         N311   1.352       .  A
C16          H18   1.081       .  S
N17          C19   1.362   1_556  A
N17         C310   1.352       .  A
N17         C349   1.436       .  S
C19          H20   1.082       .  S
C24          C26   1.540       .  S
C24          C28   1.543       .  S
C24          C27   1.546       .  S
C24         C260   1.494       .  S
C25          C29   1.527       .  S
C25          C31   1.541       .  S
C25          C30   1.525       .  S
C25         C275   1.496       .  S
C26          C34   1.376       .  A
C26          C29   1.386       .  A
C27          C38   1.393       .  A
C27          C30   1.380       .  A
C28          C42   1.391       .  A
C28          C31   1.382       .  A
C29          C32   1.380       .  A
C30          C36   1.366       .  A
C31          C39   1.372       .  A
C32          N33   1.354       .  A
C32          H45   1.082       .  S
N33          C34   1.350       .  A
N33         C140   1.422       .  S
C34          H35   1.083       .  S
C36          N37   1.349       .  A
C36          H46   1.083       .  S
N37          C38   1.358       .  A
N37         C100   1.429       .  S
C38          H44   1.082       .  S
C39          N40   1.355       .  A
C39          H41   1.081       .  S
N40          C42   1.360       .  A
N40         C108   1.439       .  S
C42          H43   1.082       .  S
C47         N359   1.343       .  A
C47          C84   1.464   1_556  S
N48          N65   1.318       .  A
N48          N70   1.327       .  A
N48         Co85   2.097       .  S
C49          N74   1.339       .  A
C49          H94   1.081   1_545  S
C49          C87   1.454       .  S
H50          C91   1.081       .  S
C51          N75   1.332       .  A
C51          H80   1.081       .  S
C51          C55   1.456       .  S
Co52        N364   2.094   1_554  S
Co52       N1236   2.165       .  S
Co52        N386   2.106   1_554  S
Co52       N1538   2.077   1_455  S
Co52      Cl1566   2.471   1_454  S
N53          C91   1.364       .  A
N53         N648   1.324       .  A
N53        Co348   2.158   1_554  S
Co54         N57   2.091       .  S
Co54         N61   2.099       .  S
Co54        N347   2.158       .  S
Co54        N662   2.075       .  S
Co54       Cl684   2.470       .  S
C55         N387   1.354       .  A
C55         N311   1.436       .  S
N56          N63   1.318       .  A
N56          N86   1.324       .  A
N56       Co1265   2.082   1_455  S
N57          N75   1.325       .  A
N57         N387   1.331       .  A
N58          C87   1.349       .  A
N58          N68   1.323       .  A
H59          C84   1.081       .  S
N60         N641   1.324   1_545  A
N60        N1257   1.345       .  A
N60       Co1228   2.165       .  S
N61          N79   1.327       .  A
N61          N66   1.318       .  A
C62          N66   1.344       .  A
C62         N169   1.431       .  S
C62          C90   1.465       .  S
N63          C78   1.339       .  A
N63        Co673   2.072       .  S
C64          N92   1.332       .  A
C64          H98   1.081       .  S
C64          C67   1.458       .  S
N65         C341   1.343       .  A
C67          N88   1.352       .  A
C67         N166   1.435       .  S
N68          N74   1.317       .  A
N68       Co1522   2.077       .  S
N69          C95   1.365       .  A
N69        N1835   1.323   1_445  A
N69         Co85   2.160       .  S
N70         C378   1.349       .  A
N70        Co346   2.094       .  S
N71          N99   1.345       .  A
N71        N1833   1.323       .  A
N71         Co89   2.158       .  S
H72          C95   1.081       .  S
H73          C90   1.081       .  S
N74        Co642   2.075   1_545  S
N75         Co89   2.099       .  S
N76          N88   1.330       .  A
N76          N92   1.326       .  A
N76         Co85   2.085       .  S
C77        N1845   1.370       .  A
C77          C91   1.486       .  S
C77        C1900   1.558       .  S
C78          H82   1.081       .  S
C78          C97   1.452       .  S
N79          C90   1.349       .  A
N79         Co89   2.095       .  S
N81        C1841   1.370   1_455  A
N81        N1236   1.345       .  A
C83         N687   1.370   1_545  A
C83        C1271   1.488       .  S
C83         C718   1.559       .  S
C84         N364   1.349   1_554  A
Co85        N651   2.072   1_545  S
Co85      Cl1272   2.470   1_455  S
N86          C97   1.349       .  A
Co89       N1232   2.082       .  S
Co89       Cl684   2.472       .  S
N92        Co346   2.106       .  S
N93         C349   1.354   1_554  A
N93         N351   1.331   1_554  A
C95        C1259   1.488   1_455  S
Cl96      Co1522   2.471       .  S
Cl96       Co642   2.470   1_545  S
Cl96      Co1261   2.470       .  S
Cl96       Co677   2.472   1_545  S
C97         N162   1.423       .  S
N99         C671   1.370       .  A
C100        N118   1.343       .  A
C100        C137   1.461       .  S
N101        N118   1.318       .  A
N101        N123   1.327       .  A
N101       Co138   2.097       .  S
C102        N127   1.340       .  A
C102        H147   1.081   1_545  S
C102        C140   1.457       .  S
H103        C144   1.081       .  S
C104        N128   1.335       .  A
C104        H133   1.081       .  S
C104        C108   1.455       .  S
Co105       N123   2.085       .  S
Co105       N145   2.104       .  S
Co105      N1289   2.161       .  S
Co105      N1297   2.068   1_455  S
Co105     Cl1325   2.475   1_455  S
N106        C144   1.366       .  A
N106        N701   1.324       .  A
N106       Co107   2.165       .  S
Co107       N110   2.099       .  S
Co107       N114   2.105       .  S
Co107       N715   2.081       .  S
Co107      Cl737   2.469       .  S
C108        N146   1.355       .  A
N109        N116   1.318       .  A
N109        N139   1.323       .  A
N109      Co1318   2.063   1_455  S
N110        N128   1.326       .  A
N110        N146   1.331       .  A
N111        C140   1.347       .  A
N111        N121   1.323       .  A
H112        C137   1.081       .  S
N113        N694   1.324   1_545  A
N113       N1310   1.345       .  A
N113      Co1281   2.161       .  S
N114        N132   1.327       .  A
N114        N119   1.318       .  A
C115        N119   1.345       .  A
C115        N192   1.429       .  S
C115        C143   1.459       .  S
N116        C131   1.343       .  A
N116       Co726   2.100       .  S
C117        N145   1.336       .  A
C117        H151   1.081       .  S
C117        C120   1.457       .  S
C120        N141   1.359       .  A
C120        N189   1.443       .  S
N121        N127   1.317       .  A
N121      Co1281   2.068       .  S
N122        C148   1.365       .  A
N122       N1888   1.323   1_445  A
N122       Co138   2.158       .  S
N123        C137   1.347       .  A
N124        N152   1.345       .  A
N124       N1886   1.323       .  A
N124       Co142   2.161       .  S
H125        C148   1.081       .  S
H126        C143   1.081       .  S
N127       Co695   2.081   1_545  S
N128       Co142   2.104       .  S
N129        N141   1.332       .  A
N129        N145   1.326       .  A
N129       Co138   2.112       .  S
C130       N1898   1.369       .  A
C130        C144   1.488       .  S
C130        C671   1.559       .  S
C131        H135   1.081       .  S
C131        C150   1.463       .  S
N132        C143   1.346       .  A
N132       Co142   2.078       .  S
N134       C1894   1.369   1_455  A
N134       N1289   1.345       .  A
C136       N1916   1.370   1_545  A
C136        C148   1.487   1_655  S
C136       C1841   1.558       .  S
Co138       N704   2.100   1_545  S
Co138     Cl1325   2.468   1_455  S
N139        C150   1.344       .  A
Co142      N1285   2.063       .  S
Co142      Cl737   2.476       .  S
Cl149     Co1281   2.475       .  S
Cl149      Co695   2.469   1_545  S
Cl149     Co1314   2.468       .  S
Cl149      Co730   2.476   1_545  S
C150        N185   1.425       .  S
N152       C1900   1.370       .  A
C153        C155   1.540       .  S
C153        C157   1.553       .  S
C153        C156   1.543       .  S
C153        C212   1.500       .  S
C154        C158   1.539       .  S
C154        C160   1.524       .  S
C154        C159   1.524       .  S
C154        C236   1.499       .  S
C155        C163   1.374       .  A
C155        C158   1.391       .  A
C156        C167   1.394       .  A
C156        C159   1.380       .  A
C157        C171   1.394       .  A
C157        C160   1.380       .  A
C158        C161   1.386       .  A
C159        C165   1.363       .  A
C160        C168   1.366       .  A
C161        N162   1.355       .  A
C161        H174   1.080       .  S
N162        C163   1.349       .  A
C163        H164   1.082       .  S
C165        N166   1.350       .  A
C165        H175   1.081       .  S
N166        C167   1.363       .  A
C167        H173   1.082       .  S
C168        N169   1.350       .  A
C168        H170   1.083       .  S
N169        C171   1.358       .  A
C171        H172   1.082       .  S
C176        C178   1.547       .  S
C176        C180   1.529       .  S
C176        C179   1.566       .  S
C176        C227   1.497       .  S
C177        C181   1.531       .  S
C177        C183   1.516       .  S
C177        C182   1.544       .  S
C177        C203   1.500       .  S
C178        C186   1.380       .  A
C178        C181   1.388       .  A
C179        C190   1.402       .  A
C179        C182   1.393       .  A
C180        C194   1.389       .  A
C180        C183   1.371       .  A
C181        C184   1.381       .  A
C182        C188   1.374       .  A
C183        C191   1.364       .  A
C184        N185   1.354       .  A
C184        H197   1.082       .  S
N185        C186   1.351       .  A
C186        H187   1.082       .  S
C188        N189   1.352       .  A
C188        H198   1.081       .  S
N189        C190   1.359       .  A
C190        H196   1.079       .  S
C191        N192   1.350       .  A
C191        H193   1.083       .  S
N192        C194   1.360       .  A
C194        H195   1.082       .  S
C199        C200   1.395       .  A
C199        C204   1.388       .  A
C199        H209   1.085       .  S
C200        C201   1.395       .  A
C200        C205   1.434       .  S
C201        C202   1.372       .  A
C201        S206   1.807       .  S
C202        C203   1.410       .  A
C202        H207   1.082       .  S
C203        C204   1.423       .  A
C204        S208   1.807       .  S
C205        C210   1.392       .  A
C205        C214   1.392       .  A
S206        H222   1.406       .  S
S208        H219   1.402       .  S
C210        C211   1.380       .  A
C210        S215   1.810       .  S
C211        C212   1.413       .  A
C211        H216   1.075       .  S
C212        C213   1.424       .  A
C213        C214   1.384       .  A
C213        S217   1.809       .  S
C214        H218   1.085       .  S
S215        H220   1.407       .  S
S217        H221   1.398       .  S
C223        C224   1.391       .  A
C223        C228   1.383       .  A
C223        H233   1.086       .  S
C224        C225   1.403       .  A
C224        C229   1.438       .  S
C225        C226   1.380       .  A
C225        S230   1.807       .  S
C226        C227   1.398       .  A
C226        H231   1.072       .  S
C227        C228   1.428       .  A
C228        S232   1.819       .  S
C229        C234   1.398       .  A
C229        C238   1.385       .  A
S230        H246   1.407       .  S
S232        H243   1.392       .  S
C234        C235   1.389       .  A
C234        S239   1.808       .  S
C235        C530   1.405   1_554  A
C235        H534   1.073   1_554  S
C236        C237   1.435       .  A
C236        C529   1.405       .  A
C237        C532   1.374       .  A
C237        S241   1.822       .  S
C238        C531   1.374       .  A
C238        H242   1.086       .  S
S239        H244   1.407       .  S
H240        C529   1.073       .  S
S241        H245   1.393       .  S
C247        C248   1.385       .  A
C247        C252   1.378       .  A
C247        H257   1.086       .  S
C248        C249   1.398       .  A
C248        C253   1.432       .  S
C249        C250   1.382       .  A
C249        S254   1.807       .  S
C250        C251   1.402       .  A
C250        H255   1.066       .  S
C251        C252   1.435       .  A
C252        S256   1.824       .  S
C253        C258   1.393       .  A
C253        C262   1.389       .  A
S254        H270   1.406       .  S
S256        H267   1.392       .  S
C258        C259   1.381       .  A
C258        S263   1.809       .  S
C259        C260   1.410       .  A
C259        H264   1.074       .  S
C260        C261   1.428       .  A
C261        C262   1.381       .  A
C261        S265   1.812       .  S
C262        H266   1.085       .  S
S263        H268   1.408       .  S
S265        H269   1.398       .  S
C271        C272   1.398       .  A
C271        C276   1.386       .  A
C271        H281   1.085       .  S
C272        C273   1.397       .  A
C272        C277   1.435       .  S
C273        C274   1.371       .  A
C273        S278   1.808       .  S
C274        C275   1.410       .  A
C274        H279   1.083       .  S
C275        C276   1.417       .  A
C276        S280   1.805       .  S
C277        C282   1.399       .  A
C277        C286   1.386       .  A
S278        H294   1.406       .  S
S280        H291   1.404       .  S
C282        C283   1.384       .  A
C282        S287   1.809       .  S
C283        C284   1.406       .  A
C283        H288   1.075       .  S
C284        C285   1.432       .  A
C285        C286   1.377       .  A
C285        S289   1.815       .  S
C286        H290   1.086       .  S
S287        H292   1.407       .  S
S289        H293   1.397       .  S
C295        C297   1.537       .  S
C295        C299   1.550       .  S
C295        C298   1.536       .  S
C295        C578   1.492       .  S
C296        C300   1.545       .  S
C296        C302   1.527       .  S
C296        C301   1.527       .  S
C296        C545   1.500       .  S
C297        C305   1.375       .  A
C298        C309   1.389       .  A
C299        C313   1.396       .  A
C300        C303   1.389       .  A
C301        C307   1.369       .  A
C302        C310   1.363       .  A
C303        N304   1.353   1_556  A
C303        H316   1.078       .  S
N304        C381   1.422       .  S
C305        H306   1.082       .  S
C307        H317   1.083       .  S
N308        C309   1.357       .  A
N308        C341   1.431       .  S
C309        H315   1.082       .  S
C310        H312   1.081       .  S
N311        C313   1.362       .  A
C313        H314   1.082       .  S
C318        C320   1.540       .  S
C318        C322   1.543       .  S
C318        C321   1.546       .  S
C318        C554   1.494       .  S
C319        C323   1.527       .  S
C319        C325   1.541       .  S
C319        C324   1.525       .  S
C319        C569   1.496       .  S
C320        C328   1.376       .  A
C320        C323   1.386       .  A
C321        C332   1.393       .  A
C321        C324   1.380       .  A
C322        C336   1.391       .  A
C322        C325   1.382       .  A
C323        C326   1.380       .  A
C324        C330   1.366       .  A
C325        C333   1.372       .  A
C326        N327   1.354       .  A
C326        H339   1.082       .  S
N327        C328   1.350       .  A
N327        C434   1.422       .  S
C328        H329   1.083       .  S
C330        N331   1.349       .  A
C330        H340   1.083       .  S
N331        C332   1.358       .  A
N331        C394   1.429       .  S
C332        H338   1.082       .  S
C333        N334   1.355       .  A
C333        H335   1.081       .  S
N334        C336   1.360       .  A
N334        C402   1.439       .  S
C336        H337   1.082       .  S
C341        C378   1.464       .  S
N342        N359   1.318       .  A
N342        N364   1.327       .  A
N342       Co379   2.097       .  S
C343        N368   1.339       .  A
C343        H388   1.081   1_545  S
C343        C381   1.454       .  S
H344        C385   1.081       .  S
C345        N369   1.332       .  A
C345        H374   1.081       .  S
C345        C349   1.456       .  S
Co346      N1530   2.165       .  S
Co346      N1244   2.077   1_455  S
Co346     Cl1272   2.471   1_455  S
N347        C385   1.364       .  A
N347        N942   1.324       .  A
Co348       N351   2.091       .  S
Co348       N956   2.075   1_556  S
Co348       N355   2.099       .  S
Co348      Cl978   2.470       .  S
N350        N357   1.318       .  A
N350        N380   1.324       .  A
N350      Co1559   2.082   1_455  S
N351        N369   1.325       .  A
N352        C381   1.349       .  A
N352        N362   1.323       .  A
H353        C378   1.081       .  S
N354        N935   1.324   1_545  A
N354       N1551   1.345       .  A
N354      Co1522   2.165       .  S
N355        N373   1.327       .  A
N355        N360   1.318       .  A
C356        N360   1.344       .  A
C356        N463   1.431       .  S
C356        C384   1.465       .  S
N357        C372   1.339       .  A
N357       Co967   2.072       .  S
C358        N386   1.332       .  A
C358        H392   1.081       .  S
C358        C361   1.458       .  S
C361        N382   1.352       .  A
C361        N460   1.435       .  S
N362        N368   1.317       .  A
N362      Co1228   2.077       .  S
N363        C389   1.365       .  A
N363       N2129   1.323   1_445  A
N363       Co379   2.160       .  S
N365       N2127   1.323       .  A
N365        N393   1.345       .  A
N365       Co383   2.158       .  S
H366        C389   1.081       .  S
H367        C384   1.081       .  S
N368       Co936   2.075   1_544  S
N369       Co383   2.099       .  S
N370        N382   1.330       .  A
N370        N386   1.326       .  A
N370       Co379   2.085       .  S
C371       N2139   1.370       .  A
C371        C385   1.486       .  S
C371       C2194   1.558       .  S
C372        H376   1.081       .  S
C372        C391   1.452       .  S
N373        C384   1.349       .  A
N373       Co383   2.095       .  S
N375       C2135   1.370   1_455  A
N375       N1530   1.345       .  A
C377        N981   1.370   1_545  A
C377       C1565   1.488       .  S
C377       C1012   1.559       .  S
Co379       N945   2.072   1_545  S
Co379     Cl1566   2.470   1_455  S
N380        C391   1.349       .  A
Co383      N1526   2.082       .  S
Co383      Cl978   2.472       .  S
C389       C1553   1.488   1_455  S
Cl390     Co1228   2.471   1_556  S
Cl390      Co936   2.470   1_545  S
Cl390     Co1555   2.470       .  S
Cl390      Co971   2.472   1_545  S
C391        N456   1.423       .  S
N393        C965   1.370       .  A
C394        N412   1.343       .  A
C394        C431   1.461       .  S
N395        N412   1.318       .  A
N395        N417   1.327       .  A
N395       Co432   2.097       .  S
C396        N421   1.340       .  A
C396        H441   1.081   1_545  S
C396        C434   1.457       .  S
H397        C438   1.081       .  S
C398        N422   1.335       .  A
C398        H427   1.081       .  S
C398        C402   1.455       .  S
Co399       N417   2.085       .  S
Co399      N1583   2.161       .  S
Co399       N439   2.104       .  S
Co399      N1591   2.068   1_455  S
Co399     Cl1619   2.475   1_455  S
N400        C438   1.366       .  A
N400        N995   1.324       .  A
N400       Co401   2.165       .  S
Co401       N404   2.099       .  S
Co401      N1009   2.081       .  S
Co401       N408   2.105       .  S
Co401     Cl1031   2.469       .  S
C402        N440   1.355       .  A
N403        N410   1.318       .  A
N403        N433   1.323       .  A
N403      Co1612   2.063   1_455  S
N404        N422   1.326       .  A
N404        N440   1.331       .  A
N405        C434   1.347       .  A
N405        N415   1.323       .  A
H406        C431   1.081       .  S
N407        N988   1.324   1_545  A
N407       N1604   1.345       .  A
N407      Co1575   2.161       .  S
N408        N426   1.327       .  A
N408        N413   1.318       .  A
C409        N413   1.345       .  A
C409        N486   1.429       .  S
C409        C437   1.459       .  S
N410        C425   1.343       .  A
N410      Co1020   2.100       .  S
C411        N439   1.336       .  A
C411        H445   1.081       .  S
C411        C414   1.457       .  S
C414        N435   1.359       .  A
C414        N483   1.443       .  S
N415        N421   1.317       .  A
N415      Co1575   2.068       .  S
N416        C442   1.365       .  A
N416       N2182   1.323   1_445  A
N416       Co432   2.158       .  S
N417        C431   1.347       .  A
N418       N2180   1.323       .  A
N418        N446   1.345       .  A
N418       Co436   2.161       .  S
H419        C442   1.081       .  S
H420        C437   1.081       .  S
N421       Co989   2.081   1_545  S
N422       Co436   2.104       .  S
N423        N435   1.332       .  A
N423        N439   1.326       .  A
N423       Co432   2.112       .  S
C424       N2192   1.369       .  A
C424        C965   1.559       .  S
C424        C438   1.488       .  S
C425        H429   1.081       .  S
C425        C444   1.463       .  S
N426        C437   1.346       .  A
N426       Co436   2.078       .  S
N428       C2188   1.369   1_455  A
N428       N1583   1.345       .  A
C430       N2210   1.370   1_545  A
C430       C2135   1.558       .  S
C430        C442   1.487   1_655  S
Co432       N998   2.100   1_545  S
Co432     Cl1619   2.468   1_455  S
N433        C444   1.344       .  A
Co436      N1579   2.063       .  S
Co436     Cl1031   2.476       .  S
Cl443     Co1575   2.475       .  S
Cl443      Co989   2.469   1_545  S
Cl443     Co1608   2.468       .  S
Cl443     Co1024   2.476   1_545  S
C444        N479   1.425       .  S
N446       C2194   1.370       .  A
C447        C449   1.540       .  S
C447        C451   1.553       .  S
C447        C450   1.543       .  S
C447        C506   1.500       .  S
C448        C452   1.539       .  S
C448        C454   1.524       .  S
C448        C453   1.524       .  S
C448        C530   1.499       .  S
C449        C457   1.374       .  A
C449        C452   1.391       .  A
C450        C461   1.394       .  A
C450        C453   1.380       .  A
C451        C465   1.394       .  A
C451        C454   1.380       .  A
C452        C455   1.386       .  A
C453        C459   1.363       .  A
C454        C462   1.366       .  A
C455        N456   1.355       .  A
C455        H468   1.080       .  S
N456        C457   1.349       .  A
C457        H458   1.082       .  S
C459        N460   1.350       .  A
C459        H469   1.081       .  S
N460        C461   1.363       .  A
C461        H467   1.082       .  S
C462        N463   1.350       .  A
C462        H464   1.083       .  S
N463        C465   1.358       .  A
C465        H466   1.082       .  S
C470        C472   1.547       .  S
C470        C474   1.529       .  S
C470        C473   1.566       .  S
C470        C521   1.497       .  S
C471        C475   1.531       .  S
C471        C477   1.516       .  S
C471        C476   1.544       .  S
C471        C497   1.500       .  S
C472        C480   1.380       .  A
C472        C475   1.388       .  A
C473        C484   1.402       .  A
C473        C476   1.393       .  A
C474        C488   1.389       .  A
C474        C477   1.371       .  A
C475        C478   1.381       .  A
C476        C482   1.374       .  A
C477        C485   1.364       .  A
C478        N479   1.354       .  A
C478        H491   1.082       .  S
N479        C480   1.351       .  A
C480        H481   1.082       .  S
C482        N483   1.352       .  A
C482        H492   1.081       .  S
N483        C484   1.359       .  A
C484        H490   1.079       .  S
C485        N486   1.350       .  A
C485        H487   1.083       .  S
N486        C488   1.360       .  A
C488        H489   1.082       .  S
C493        C494   1.395       .  A
C493        C498   1.388       .  A
C493        H503   1.085       .  S
C494        C495   1.395       .  A
C494        C499   1.434       .  S
C495        C496   1.372       .  A
C495        S500   1.807       .  S
C496        C497   1.410       .  A
C496        H501   1.082       .  S
C497        C498   1.423       .  A
C498        S502   1.807       .  S
C499        C504   1.392       .  A
C499        C508   1.392       .  A
S500        H516   1.406       .  S
S502        H513   1.402       .  S
C504        C505   1.380       .  A
C504        S509   1.810       .  S
C505        C506   1.413       .  A
C505        H510   1.075       .  S
C506        C507   1.424       .  A
C507        C508   1.384       .  A
C507        S511   1.809       .  S
C508        H512   1.085       .  S
S509        H514   1.407       .  S
S511        H515   1.398       .  S
C517        C518   1.391       .  A
C517        C522   1.383       .  A
C517        H527   1.086       .  S
C518        C519   1.403       .  A
C518        C523   1.438       .  S
C519        C520   1.380       .  A
C519        S524   1.807       .  S
C520        C521   1.398       .  A
C520        H525   1.072       .  S
C521        C522   1.428       .  A
C522        S526   1.819       .  S
C523        C528   1.398       .  A
C523        C532   1.385       .  A
S524        H540   1.407       .  S
S526        H537   1.392       .  S
C528        C529   1.389       .  A
C528        S533   1.808       .  S
C530        C531   1.435   1_556  A
C531        S535   1.822   1_554  S
C532        H536   1.086       .  S
S533        H538   1.407       .  S
S535        H539   1.393       .  S
C541        C542   1.385       .  A
C541        C546   1.378       .  A
C541        H551   1.086       .  S
C542        C543   1.398       .  A
C542        C547   1.432       .  S
C543        C544   1.382       .  A
C543        S548   1.807       .  S
C544        C545   1.402       .  A
C544        H549   1.066       .  S
C545        C546   1.435       .  A
C546        S550   1.824       .  S
C547        C552   1.393       .  A
C547        C556   1.389       .  A
S548        H564   1.406       .  S
S550        H561   1.392       .  S
C552        C553   1.381       .  A
C552        S557   1.809       .  S
C553        C554   1.410       .  A
C553        H558   1.074       .  S
C554        C555   1.428       .  A
C555        C556   1.381       .  A
C555        S559   1.812       .  S
C556        H560   1.085       .  S
S557        H562   1.408       .  S
S559        H563   1.398       .  S
C565        C566   1.398       .  A
C565        C570   1.386       .  A
C565        H575   1.085       .  S
C566        C567   1.397       .  A
C566        C571   1.435       .  S
C567        C568   1.371       .  A
C567        S572   1.808       .  S
C568        C569   1.410       .  A
C568        H573   1.083       .  S
C569        C570   1.417       .  A
C570        S574   1.805       .  S
C571        C576   1.399       .  A
C571        C580   1.386       .  A
S572        H588   1.406       .  S
S574        H585   1.404       .  S
C576        C577   1.384       .  A
C576        S581   1.809       .  S
C577        C578   1.406       .  A
C577        H582   1.075       .  S
C578        C579   1.432       .  A
C579        C580   1.377       .  A
C579        S583   1.815       .  S
C580        H584   1.086       .  S
S581        H586   1.407       .  S
S583        H587   1.397       .  S
C589        C591   1.537       .  S
C589        C593   1.550       .  S
C589        C592   1.536       .  S
C589        C872   1.492       .  S
C590        C594   1.545       .  S
C590        C596   1.527       .  S
C590        C595   1.527       .  S
C590        C839   1.500       .  S
C591        C599   1.375       .  A
C591        C888   1.391   1_554  A
C592        C603   1.389       .  A
C592        C889   1.376   1_554  A
C593        C607   1.396       .  A
C593        C890   1.384   1_554  A
C594        C885   1.391       .  A
C594        C597   1.389       .  A
C595        C886   1.376       .  A
C595        C601   1.369       .  A
C596        C887   1.384       .  A
C596        C604   1.363       .  A
C597        N598   1.353       .  A
C597        H610   1.078       .  S
N598        C893   1.347       .  A
N598        C675   1.422       .  S
C599        N892   1.347       .  A
C599        H600   1.082       .  S
C601        N896   1.352       .  A
C601        H611   1.083       .  S
N602        C895   1.352       .  A
N602        C603   1.357   1_556  A
N602        C635   1.431       .  S
C603        H609   1.082       .  S
C604        N899   1.352       .  A
C604        H606   1.081       .  S
N605        C898   1.352       .  A
N605        C607   1.362   1_556  A
N605        C937   1.436       .  S
C607        H608   1.082       .  S
C612        C614   1.540       .  S
C612        C616   1.543       .  S
C612        C615   1.546       .  S
C612        C848   1.494       .  S
C613        C617   1.527       .  S
C613        C619   1.541       .  S
C613        C618   1.525       .  S
C613        C863   1.496       .  S
C614        C622   1.376       .  A
C614        C617   1.386       .  A
C615        C626   1.393       .  A
C615        C618   1.380       .  A
C616        C630   1.391       .  A
C616        C619   1.382       .  A
C617        C620   1.380       .  A
C618        C624   1.366       .  A
C619        C627   1.372       .  A
C620        N621   1.354       .  A
C620        H633   1.082       .  S
N621        C622   1.350       .  A
N621        C728   1.422       .  S
C622        H623   1.083       .  S
C624        N625   1.349       .  A
C624        H634   1.083       .  S
N625        C626   1.358       .  A
N625        C688   1.429       .  S
C626        H632   1.082       .  S
C627        N628   1.355       .  A
C627        H629   1.081       .  S
N628        C630   1.360       .  A
N628        C696   1.439       .  S
C630        H631   1.082       .  S
C635        N947   1.343       .  A
C635        C672   1.464   1_556  S
N636        N653   1.318       .  A
N636        N658   1.327       .  A
N636       Co673   2.097       .  S
C637        N662   1.339       .  A
C637        H682   1.081       .  S
C637        C675   1.454       .  S
H638        C679   1.081       .  S
C639        N663   1.332       .  A
C639        H668   1.081       .  S
C639        C643   1.456       .  S
Co640       N952   2.094   1_554  S
Co640      N1824   2.165       .  S
Co640       N974   2.106   1_554  S
Co640      N2126   2.077   1_455  S
Co640     Cl2154   2.471   1_454  S
N641        C679   1.364       .  A
N641       Co936   2.158   1_554  S
Co642       N935   2.158       .  S
Co642       N645   2.091       .  S
Co642       N649   2.099       .  S
C643        N975   1.354       .  A
C643        N899   1.436       .  S
N644        N651   1.318       .  A
N644        N674   1.324       .  A
N644      Co1853   2.082   1_455  S
N645        N663   1.325       .  A
N645        N975   1.331       .  A
N646        C675   1.349       .  A
N646        N656   1.323       .  A
H647        C672   1.081       .  S
N648       N1845   1.345       .  A
N648      Co1816   2.165       .  S
N649        N667   1.327       .  A
N649        N654   1.318       .  A
C650        N654   1.344       .  A
C650        N757   1.431       .  S
C650        C678   1.465       .  S
N651        C666   1.339       .  A
C652        N680   1.332       .  A
C652        H686   1.081       .  S
C652        C655   1.458       .  S
N653        C929   1.343       .  A
C655        N676   1.352       .  A
C655        N754   1.435       .  S
N656        N662   1.317       .  A
N656      Co2110   2.077       .  S
N657        C683   1.365       .  A
N657       N1247   1.323   1_455  A
N657       Co673   2.160       .  S
N658        C966   1.349       .  A
N658       Co934   2.094       .  S
N659       N1245   1.323   1_565  A
N659        N687   1.345       .  A
N659       Co677   2.158       .  S
H660        C683   1.081       .  S
H661        C678   1.081       .  S
N663       Co677   2.099       .  S
N664        N676   1.330       .  A
N664        N680   1.326       .  A
N664       Co673   2.085       .  S
C665       N1257   1.370       .  A
C665        C679   1.486   1_545  S
C665       C1312   1.558       .  S
C666        H670   1.081   1_565  S
C666        C685   1.452       .  S
N667        C678   1.349       .  A
N667       Co677   2.095       .  S
N669       C1253   1.370   1_455  A
N669       N1824   1.345       .  A
C671       C1859   1.488       .  S
C672        N952   1.349   1_554  A
Co673     Cl1860   2.470   1_455  S
N674        C685   1.349       .  A
Co677      N1820   2.082       .  S
N680       Co934   2.106       .  S
N681        C937   1.354   1_554  A
N681        N939   1.331   1_554  A
C683       C1847   1.488   1_455  S
Cl684     Co2110   2.471       .  S
Cl684     Co1849   2.470       .  S
C685        N750   1.423       .  S
C688        N706   1.343       .  A
C688        C725   1.461       .  S
N689        N706   1.318       .  A
N689        N711   1.327       .  A
N689       Co726   2.097       .  S
C690        N715   1.340       .  A
C690        H735   1.081       .  S
C690        C728   1.457       .  S
H691        C732   1.081       .  S
C692        N716   1.335       .  A
C692        H721   1.081       .  S
C692        C696   1.455       .  S
Co693       N711   2.085       .  S
Co693      N1877   2.161       .  S
Co693       N733   2.104       .  S
Co693      N1885   2.068   1_455  S
Co693     Cl1913   2.475   1_455  S
N694        C732   1.366       .  A
N694       Co695   2.165       .  S
Co695       N698   2.099       .  S
Co695       N702   2.105       .  S
C696        N734   1.355       .  A
N697        N704   1.318       .  A
N697        N727   1.323       .  A
N697      Co1906   2.063   1_455  S
N698        N716   1.326       .  A
N698        N734   1.331       .  A
N699        C728   1.347       .  A
N699        N709   1.323       .  A
H700        C725   1.081       .  S
N701       N1898   1.345       .  A
N701      Co1869   2.161       .  S
N702        N720   1.327       .  A
N702        N707   1.318       .  A
C703        N707   1.345       .  A
C703        N780   1.429       .  S
C703        C731   1.459       .  S
N704        C719   1.343       .  A
C705        N733   1.336       .  A
C705        H739   1.081       .  S
C705        C708   1.457       .  S
C708        N729   1.359       .  A
C708        N777   1.443       .  S
N709        N715   1.317       .  A
N709      Co1869   2.068       .  S
N710        C736   1.365       .  A
N710       N1300   1.323   1_455  A
N710       Co726   2.158       .  S
N711        C725   1.347       .  A
N712       N1298   1.323   1_565  A
N712        N740   1.345       .  A
N712       Co730   2.161       .  S
H713        C736   1.081       .  S
H714        C731   1.081       .  S
N716       Co730   2.104       .  S
N717        N729   1.332       .  A
N717        N733   1.326       .  A
N717       Co726   2.112       .  S
C718       N1310   1.369       .  A
C718        C732   1.488   1_545  S
C719        H723   1.081   1_565  S
C719        C738   1.463       .  S
N720        C731   1.346       .  A
N720       Co730   2.078       .  S
N722       C1306   1.369   1_455  A
N722       N1877   1.345       .  A
C724       N1328   1.370       .  A
C724       C1253   1.558       .  S
C724        C736   1.487   1_655  S
Co726     Cl1913   2.468   1_455  S
N727        C738   1.344       .  A
Co730      N1873   2.063       .  S
Cl737     Co1869   2.475       .  S
Cl737     Co1902   2.468       .  S
C738        N773   1.425       .  S
N740       C1312   1.370   1_565  A
C741        C743   1.540       .  S
C741        C745   1.553       .  S
C741        C744   1.543       .  S
C741        C800   1.500       .  S
C742        C746   1.539       .  S
C742        C748   1.524       .  S
C742        C747   1.524       .  S
C742        C824   1.499       .  S
C743        C751   1.374       .  A
C743        C746   1.391       .  A
C744        C755   1.394       .  A
C744        C747   1.380       .  A
C745        C759   1.394       .  A
C745        C748   1.380       .  A
C746        C749   1.386       .  A
C747        C753   1.363       .  A
C748        C756   1.366       .  A
C749        N750   1.355       .  A
C749        H762   1.080       .  S
N750        C751   1.349       .  A
C751        H752   1.083       .  S
C753        N754   1.350       .  A
C753        H763   1.081       .  S
N754        C755   1.363       .  A
C755        H761   1.082       .  S
C756        N757   1.350       .  A
C756        H758   1.083       .  S
N757        C759   1.358       .  A
C759        H760   1.082       .  S
C764        C766   1.547       .  S
C764        C768   1.529       .  S
C764        C767   1.566       .  S
C764        C815   1.497       .  S
C765        C769   1.531       .  S
C765        C771   1.516       .  S
C765        C770   1.544       .  S
C765        C791   1.500       .  S
C766        C774   1.380       .  A
C766        C769   1.388       .  A
C767        C778   1.402       .  A
C767        C770   1.393       .  A
C768        C782   1.389       .  A
C768        C771   1.371       .  A
C769        C772   1.381       .  A
C770        C776   1.374       .  A
C771        C779   1.364       .  A
C772        N773   1.354       .  A
C772        H785   1.082       .  S
N773        C774   1.351       .  A
C774        H775   1.082       .  S
C776        N777   1.352       .  A
C776        H786   1.081       .  S
N777        C778   1.359       .  A
C778        H784   1.079       .  S
C779        N780   1.350       .  A
C779        H781   1.083       .  S
N780        C782   1.360       .  A
C782        H783   1.082       .  S
C787        C788   1.395       .  A
C787        C792   1.388       .  A
C787        H797   1.085       .  S
C788        C789   1.395       .  A
C788        C793   1.434       .  S
C789        C790   1.372       .  A
C789        S794   1.807       .  S
C790        C791   1.410       .  A
C790        H795   1.082       .  S
C791        C792   1.423       .  A
C792        S796   1.807       .  S
C793        C798   1.392       .  A
C793        C802   1.392       .  A
S794        H810   1.406       .  S
S796        H807   1.402       .  S
C798        C799   1.380       .  A
C798        S803   1.810       .  S
C799        C800   1.413       .  A
C799        H804   1.075       .  S
C800        C801   1.424       .  A
C801        C802   1.384       .  A
C801        S805   1.809       .  S
C802        H806   1.085       .  S
S803        H808   1.407       .  S
S805        H809   1.398       .  S
C811        C812   1.391       .  A
C811        C816   1.383       .  A
C811        H821   1.086       .  S
C812        C813   1.403       .  A
C812        C817   1.438       .  S
C813        C814   1.380       .  A
C813        S818   1.807       .  S
C814        C815   1.398       .  A
C814        H819   1.072       .  S
C815        C816   1.428       .  A
C816        S820   1.819       .  S
C817        C822   1.398       .  A
C817        C826   1.385       .  A
S818        H834   1.407       .  S
S820        H831   1.392       .  S
C822        C823   1.389       .  A
C822        S827   1.808       .  S
C823       C1118   1.405   1_554  A
C823       H1122   1.073   1_554  S
C824       C1117   1.405       .  A
C824        C825   1.435       .  A
C825       C1120   1.374       .  A
C825        S829   1.822       .  S
C826       C1119   1.374       .  A
C826        H830   1.086       .  S
S827        H832   1.407       .  S
H828       C1117   1.073       .  S
S829        H833   1.393       .  S
C835        C836   1.385       .  A
C835        C840   1.378       .  A
C835        H845   1.086       .  S
C836        C837   1.398       .  A
C836        C841   1.432       .  S
C837        C838   1.382       .  A
C837        S842   1.807       .  S
C838        C839   1.402       .  A
C838        H843   1.066       .  S
C839        C840   1.435       .  A
C840        S844   1.824       .  S
C841        C846   1.393       .  A
C841        C850   1.389       .  A
S842        H858   1.406       .  S
S844        H855   1.392       .  S
C846        C847   1.381       .  A
C846        S851   1.809       .  S
C847        C848   1.410       .  A
C847        H852   1.074       .  S
C848        C849   1.428       .  A
C849        C850   1.381       .  A
C849        S853   1.812       .  S
C850        H854   1.085       .  S
S851        H856   1.408       .  S
S853        H857   1.398       .  S
C859        C860   1.398       .  A
C859        C864   1.386       .  A
C859        H869   1.085       .  S
C860        C861   1.397       .  A
C860        C865   1.435       .  S
C861        C862   1.371       .  A
C861        S866   1.808       .  S
C862        C863   1.410       .  A
C862        H867   1.083       .  S
C863        C864   1.417       .  A
C864        S868   1.805       .  S
C865        C870   1.399       .  A
C865        C874   1.386       .  A
S866        H882   1.406       .  S
S868        H879   1.404       .  S
C870        C871   1.384       .  A
C870        S875   1.809       .  S
C871        C872   1.406       .  A
C871        H876   1.075       .  S
C872        C873   1.432       .  A
C873        C874   1.377       .  A
C873        S877   1.815       .  S
C874        H878   1.086       .  S
S875        H880   1.407       .  S
S877        H881   1.397       .  S
C883        C885   1.537       .  S
C883        C887   1.550       .  S
C883        C886   1.536       .  S
C883       C1166   1.492       .  S
C884        C888   1.545       .  S
C884        C890   1.527       .  S
C884        C889   1.527       .  S
C884       C1133   1.500       .  S
C885        C893   1.375       .  A
C886        C897   1.389       .  A
C887        C901   1.396       .  A
C888        C891   1.389       .  A
C889        C895   1.369       .  A
C890        C898   1.363       .  A
C891        N892   1.353   1_556  A
C891        H904   1.078       .  S
N892        C969   1.422       .  S
C893        H894   1.082       .  S
C895        H905   1.083       .  S
N896        C897   1.357       .  A
N896        C929   1.431       .  S
C897        H903   1.082       .  S
C898        H900   1.081       .  S
N899        C901   1.362       .  A
C901        H902   1.082       .  S
C906        C908   1.540       .  S
C906        C910   1.543       .  S
C906        C909   1.546       .  S
C906       C1142   1.494       .  S
C907        C911   1.527       .  S
C907        C913   1.541       .  S
C907        C912   1.525       .  S
C907       C1157   1.496       .  S
C908        C916   1.376       .  A
C908        C911   1.386       .  A
C909        C920   1.393       .  A
C909        C912   1.380       .  A
C910        C924   1.391       .  A
C910        C913   1.382       .  A
C911        C914   1.380       .  A
C912        C918   1.366       .  A
C913        C921   1.372       .  A
C914        N915   1.354       .  A
C914        H927   1.082       .  S
N915        C916   1.350       .  A
N915       C1022   1.422       .  S
C916        H917   1.083       .  S
C918        N919   1.349       .  A
C918        H928   1.083       .  S
N919        C920   1.358       .  A
N919        C982   1.429       .  S
C920        H926   1.082       .  S
C921        N922   1.355       .  A
C921        H923   1.081       .  S
N922        C924   1.360       .  A
N922        C990   1.439       .  S
C924        H925   1.082       .  S
C929        C966   1.464       .  S
N930        N947   1.318       .  A
N930        N952   1.327       .  A
N930       Co967   2.097       .  S
C931        N956   1.339       .  A
C931        H976   1.081       .  S
C931        C969   1.454       .  S
H932        C973   1.081       .  S
C933        N957   1.332       .  A
C933        H962   1.081       .  S
C933        C937   1.456       .  S
Co934      N2118   2.165       .  S
Co934      N1832   2.077   1_455  S
Co934     Cl1860   2.471   1_455  S
N935        C973   1.364       .  A
Co936       N939   2.091       .  S
Co936       N943   2.099       .  S
N938        N945   1.318       .  A
N938        N968   1.324       .  A
N938      Co2147   2.082   1_455  S
N939        N957   1.325       .  A
N940        C969   1.349       .  A
N940        N950   1.323       .  A
H941        C966   1.081       .  S
N942       N2139   1.345       .  A
N942      Co2110   2.165       .  S
N943        N961   1.327       .  A
N943        N948   1.318       .  A
C944        N948   1.344       .  A
C944       N1051   1.431       .  S
C944        C972   1.465       .  S
N945        C960   1.339       .  A
C946        N974   1.332       .  A
C946        H980   1.081       .  S
C946        C949   1.458       .  S
C949        N970   1.352       .  A
C949       N1048   1.435       .  S
N950        N956   1.317       .  A
N950      Co1816   2.077       .  S
N951        C977   1.365       .  A
N951       N1541   1.323   1_455  A
N951       Co967   2.160       .  S
N953       N1539   1.323   1_565  A
N953        N981   1.345       .  A
N953       Co971   2.158       .  S
H954        C977   1.081       .  S
H955        C972   1.081       .  S
N957       Co971   2.099       .  S
N958        N970   1.330       .  A
N958        N974   1.326       .  A
N958       Co967   2.085       .  S
C959       N1551   1.370       .  A
C959        C973   1.486   1_545  S
C959       C1606   1.558       .  S
C960        H964   1.081   1_565  S
C960        C979   1.452       .  S
N961        C972   1.349       .  A
N961       Co971   2.095       .  S
N963       C1547   1.370   1_455  A
N963       N2118   1.345       .  A
C965       C2153   1.488       .  S
Co967     Cl2154   2.470   1_455  S
N968        C979   1.349       .  A
Co971      N2114   2.082       .  S
C977       C2141   1.488   1_455  S
Cl978     Co1816   2.471   1_556  S
Cl978     Co2143   2.470       .  S
C979       N1044   1.423       .  S
C982       N1000   1.343       .  A
C982       C1019   1.461       .  S
N983       N1000   1.318       .  A
N983       N1005   1.327       .  A
N983      Co1020   2.097       .  S
C984       N1009   1.340       .  A
C984       H1029   1.081       .  S
C984       C1022   1.457       .  S
H985       C1026   1.081       .  S
C986       N1010   1.335       .  A
C986       H1015   1.081       .  S
C986        C990   1.455       .  S
Co987      N1005   2.085       .  S
Co987      N2171   2.161       .  S
Co987      N1027   2.104       .  S
Co987      N2179   2.068   1_455  S
Co987     Cl2207   2.475   1_455  S
N988       C1026   1.366       .  A
N988       Co989   2.165       .  S
Co989       N992   2.099       .  S
Co989       N996   2.105       .  S
C990       N1028   1.355       .  A
N991        N998   1.318       .  A
N991       N1021   1.323       .  A
N991      Co2200   2.063   1_455  S
N992       N1010   1.326       .  A
N992       N1028   1.331       .  A
N993       C1022   1.347       .  A
N993       N1003   1.323       .  A
H994       C1019   1.081       .  S
N995       N2192   1.345       .  A
N995      Co2163   2.161       .  S
N996       N1014   1.327       .  A
N996       N1001   1.318       .  A
C997       N1001   1.345       .  A
C997       N1074   1.429       .  S
C997       C1025   1.459       .  S
N998       C1013   1.343       .  A
C999       N1027   1.336       .  A
C999       H1033   1.081       .  S
C999       C1002   1.457       .  S
C1002      N1023   1.359       .  A
C1002      N1071   1.443       .  S
N1003      N1009   1.317       .  A
N1003     Co2163   2.068       .  S
N1004      C1030   1.365       .  A
N1004      N1594   1.323   1_455  A
N1004     Co1020   2.158       .  S
N1005      C1019   1.347       .  A
N1006      N1592   1.323   1_565  A
N1006      N1034   1.345       .  A
N1006     Co1024   2.161       .  S
H1007      C1030   1.081       .  S
H1008      C1025   1.081       .  S
N1010     Co1024   2.104       .  S
N1011      N1023   1.332       .  A
N1011      N1027   1.326       .  A
N1011     Co1020   2.112       .  S
C1012      N1604   1.369       .  A
C1012      C1026   1.488   1_545  S
C1013      H1017   1.081   1_565  S
C1013      C1032   1.463       .  S
N1014      C1025   1.346       .  A
N1014     Co1024   2.078       .  S
N1016      C1600   1.369   1_455  A
N1016      N2171   1.345       .  A
C1018      N1622   1.370       .  A
C1018      C1547   1.558       .  S
C1018      C1030   1.487   1_655  S
Co1020    Cl2207   2.468   1_455  S
N1021      C1032   1.344       .  A
Co1024     N2167   2.063       .  S
Cl1031    Co2163   2.475       .  S
Cl1031    Co2196   2.468       .  S
C1032      N1067   1.425       .  S
N1034      C1606   1.370   1_565  A
C1035      C1037   1.540       .  S
C1035      C1039   1.553       .  S
C1035      C1038   1.543       .  S
C1035      C1094   1.500       .  S
C1036      C1040   1.539       .  S
C1036      C1042   1.524       .  S
C1036      C1041   1.524       .  S
C1036      C1118   1.499       .  S
C1037      C1045   1.374       .  A
C1037      C1040   1.391       .  A
C1038      C1049   1.394       .  A
C1038      C1041   1.380       .  A
C1039      C1053   1.394       .  A
C1039      C1042   1.380       .  A
C1040      C1043   1.386       .  A
C1041      C1047   1.363       .  A
C1042      C1050   1.366       .  A
C1043      N1044   1.355       .  A
C1043      H1056   1.080       .  S
N1044      C1045   1.349       .  A
C1045      H1046   1.083       .  S
C1047      N1048   1.350       .  A
C1047      H1057   1.081       .  S
N1048      C1049   1.363       .  A
C1049      H1055   1.082       .  S
C1050      N1051   1.350       .  A
C1050      H1052   1.083       .  S
N1051      C1053   1.358       .  A
C1053      H1054   1.082       .  S
C1058      C1060   1.547       .  S
C1058      C1062   1.529       .  S
C1058      C1061   1.566       .  S
C1058      C1109   1.497       .  S
C1059      C1063   1.531       .  S
C1059      C1065   1.516       .  S
C1059      C1064   1.544       .  S
C1059      C1085   1.500       .  S
C1060      C1068   1.380       .  A
C1060      C1063   1.388       .  A
C1061      C1072   1.402       .  A
C1061      C1064   1.393       .  A
C1062      C1076   1.389       .  A
C1062      C1065   1.371       .  A
C1063      C1066   1.381       .  A
C1064      C1070   1.374       .  A
C1065      C1073   1.364       .  A
C1066      N1067   1.354       .  A
C1066      H1079   1.082       .  S
N1067      C1068   1.351       .  A
C1068      H1069   1.082       .  S
C1070      N1071   1.352       .  A
C1070      H1080   1.081       .  S
N1071      C1072   1.359       .  A
C1072      H1078   1.079       .  S
C1073      N1074   1.350       .  A
C1073      H1075   1.083       .  S
N1074      C1076   1.360       .  A
C1076      H1077   1.082       .  S
C1081      C1082   1.395       .  A
C1081      C1086   1.388       .  A
C1081      H1091   1.085       .  S
C1082      C1083   1.395       .  A
C1082      C1087   1.434       .  S
C1083      C1084   1.372       .  A
C1083      S1088   1.807       .  S
C1084      C1085   1.410       .  A
C1084      H1089   1.082       .  S
C1085      C1086   1.423       .  A
C1086      S1090   1.807       .  S
C1087      C1092   1.392       .  A
C1087      C1096   1.392       .  A
S1088      H1104   1.406       .  S
S1090      H1101   1.402       .  S
C1092      C1093   1.380       .  A
C1092      S1097   1.810       .  S
C1093      C1094   1.413       .  A
C1093      H1098   1.075       .  S
C1094      C1095   1.424       .  A
C1095      C1096   1.384       .  A
C1095      S1099   1.809       .  S
C1096      H1100   1.085       .  S
S1097      H1102   1.407       .  S
S1099      H1103   1.398       .  S
C1105      C1106   1.391       .  A
C1105      C1110   1.383       .  A
C1105      H1115   1.086       .  S
C1106      C1107   1.403       .  A
C1106      C1111   1.438       .  S
C1107      C1108   1.380       .  A
C1107      S1112   1.807       .  S
C1108      C1109   1.398       .  A
C1108      H1113   1.072       .  S
C1109      C1110   1.428       .  A
C1110      S1114   1.819       .  S
C1111      C1116   1.398       .  A
C1111      C1120   1.385       .  A
S1112      H1128   1.407       .  S
S1114      H1125   1.392       .  S
C1116      C1117   1.389       .  A
C1116      S1121   1.808       .  S
C1118      C1119   1.435   1_556  A
C1119      S1123   1.822   1_554  S
C1120      H1124   1.086       .  S
S1121      H1126   1.407       .  S
S1123      H1127   1.393       .  S
C1129      C1130   1.385       .  A
C1129      C1134   1.378       .  A
C1129      H1139   1.086       .  S
C1130      C1131   1.398       .  A
C1130      C1135   1.432       .  S
C1131      C1132   1.382       .  A
C1131      S1136   1.807       .  S
C1132      C1133   1.402       .  A
C1132      H1137   1.066       .  S
C1133      C1134   1.435       .  A
C1134      S1138   1.824       .  S
C1135      C1140   1.393       .  A
C1135      C1144   1.389       .  A
S1136      H1152   1.406       .  S
S1138      H1149   1.392       .  S
C1140      C1141   1.381       .  A
C1140      S1145   1.809       .  S
C1141      C1142   1.410       .  A
C1141      H1146   1.074       .  S
C1142      C1143   1.428       .  A
C1143      C1144   1.381       .  A
C1143      S1147   1.812       .  S
C1144      H1148   1.085       .  S
S1145      H1150   1.408       .  S
S1147      H1151   1.398       .  S
C1153      C1154   1.398       .  A
C1153      C1158   1.386       .  A
C1153      H1163   1.085       .  S
C1154      C1155   1.397       .  A
C1154      C1159   1.435       .  S
C1155      C1156   1.371       .  A
C1155      S1160   1.808       .  S
C1156      C1157   1.410       .  A
C1156      H1161   1.083       .  S
C1157      C1158   1.417       .  A
C1158      S1162   1.805       .  S
C1159      C1164   1.399       .  A
C1159      C1168   1.386       .  A
S1160      H1176   1.406       .  S
S1162      H1173   1.404       .  S
C1164      C1165   1.384       .  A
C1164      S1169   1.809       .  S
C1165      C1166   1.406       .  A
C1165      H1170   1.075       .  S
C1166      C1167   1.432       .  A
C1167      C1168   1.377       .  A
C1167      S1171   1.815       .  S
C1168      H1172   1.086       .  S
S1169      H1174   1.407       .  S
S1171      H1175   1.397       .  S
C1177      C1179   1.537       .  S
C1177      C1181   1.550       .  S
C1177      C1180   1.536       .  S
C1177      C1460   1.492       .  S
C1178      C1182   1.545       .  S
C1178      C1184   1.527       .  S
C1178      C1183   1.527       .  S
C1178      C1427   1.500       .  S
C1179      C1187   1.375       .  A
C1179      C1476   1.391   1_554  A
C1180      C1191   1.389       .  A
C1180      C1477   1.376   1_554  A
C1181      C1195   1.396       .  A
C1181      C1478   1.384   1_554  A
C1182      C1473   1.391       .  A
C1182      C1185   1.389       .  A
C1183      C1474   1.376       .  A
C1183      C1189   1.369       .  A
C1184      C1475   1.384       .  A
C1184      C1192   1.363       .  A
C1185      N1186   1.353       .  A
C1185      H1198   1.078       .  S
N1186      C1481   1.347       .  A
N1186      C1263   1.422       .  S
C1187      N1480   1.347       .  A
C1187      H1188   1.082       .  S
C1189      N1484   1.352       .  A
C1189      H1199   1.083       .  S
N1190      C1483   1.352       .  A
N1190      C1191   1.357   1_556  A
N1190      C1223   1.431       .  S
C1191      H1197   1.082       .  S
C1192      N1487   1.352       .  A
C1192      H1194   1.081       .  S
N1193      C1486   1.352       .  A
N1193      C1195   1.362   1_556  A
N1193      C1525   1.436       .  S
C1195      H1196   1.082       .  S
C1200      C1202   1.540       .  S
C1200      C1204   1.543       .  S
C1200      C1203   1.546       .  S
C1200      C1436   1.494       .  S
C1201      C1205   1.527       .  S
C1201      C1207   1.541       .  S
C1201      C1206   1.525       .  S
C1201      C1451   1.496       .  S
C1202      C1210   1.376       .  A
C1202      C1205   1.386       .  A
C1203      C1214   1.393       .  A
C1203      C1206   1.380       .  A
C1204      C1218   1.391       .  A
C1204      C1207   1.382       .  A
C1205      C1208   1.380       .  A
C1206      C1212   1.366       .  A
C1207      C1215   1.372       .  A
C1208      N1209   1.354       .  A
C1208      H1221   1.082       .  S
N1209      C1210   1.350       .  A
N1209      C1316   1.422       .  S
C1210      H1211   1.083       .  S
C1212      N1213   1.349       .  A
C1212      H1222   1.083       .  S
N1213      C1214   1.358       .  A
N1213      C1276   1.429       .  S
C1214      H1220   1.082       .  S
C1215      N1216   1.355       .  A
C1215      H1217   1.081       .  S
N1216      C1218   1.360       .  A
N1216      C1284   1.439       .  S
C1218      H1219   1.082       .  S
C1223      N1535   1.343       .  A
C1223      C1260   1.464   1_556  S
N1224      N1241   1.318       .  A
N1224      N1246   1.327       .  A
N1224     Co1261   2.097       .  S
C1225      N1250   1.339       .  A
C1225      H1270   1.081   1_545  S
C1225      C1263   1.454       .  S
H1226      C1267   1.081       .  S
C1227      N1251   1.332       .  A
C1227      H1256   1.081       .  S
C1227      C1231   1.456       .  S
Co1228     N1540   2.094   1_554  S
Co1228     N1562   2.106   1_554  S
N1229      C1267   1.364       .  A
N1229      N1824   1.324   1_655  A
N1229     Co1524   2.158   1_554  S
Co1230     N1523   2.158       .  S
Co1230     N1233   2.091       .  S
Co1230     N1838   2.075       .  S
Co1230     N1237   2.099       .  S
Co1230    Cl1860   2.470       .  S
C1231      N1563   1.354       .  A
C1231      N1487   1.436       .  S
N1232      N1239   1.318       .  A
N1232      N1262   1.324       .  A
N1233      N1251   1.325       .  A
N1233      N1563   1.331       .  A
N1234      C1263   1.349       .  A
N1234      N1244   1.323       .  A
H1235      C1260   1.081       .  S
N1236      N1817   1.324   1_445  A
N1237      N1255   1.327       .  A
N1237      N1242   1.318       .  A
C1238      N1242   1.344       .  A
C1238      N1345   1.431       .  S
C1238      C1266   1.465       .  S
N1239      C1254   1.339       .  A
N1239     Co1849   2.072       .  S
C1240      N1268   1.332       .  A
C1240      H1274   1.081       .  S
C1240      C1243   1.458       .  S
N1241      C1517   1.343       .  A
C1243      N1264   1.352       .  A
C1243      N1342   1.435       .  S
N1244      N1250   1.317       .  A
N1245      C1271   1.365       .  A
N1245     Co1261   2.160       .  S
N1246      C1554   1.349       .  A
N1246     Co1522   2.094       .  S
N1247      N1275   1.345       .  A
N1247     Co1265   2.158       .  S
H1248      C1271   1.081       .  S
H1249      C1266   1.081       .  S
N1250     Co1818   2.075   1_545  S
N1251     Co1265   2.099       .  S
N1252      N1264   1.330       .  A
N1252      N1268   1.326       .  A
N1252     Co1261   2.085       .  S
C1253      C1267   1.486       .  S
C1254      H1258   1.081       .  S
C1254      C1273   1.452       .  S
N1255      C1266   1.349       .  A
N1255     Co1265   2.095       .  S
C1259      N1863   1.370   1_545  A
C1259      C1894   1.559       .  S
C1260      N1540   1.349   1_554  A
Co1261     N1827   2.072   1_545  S
N1262      C1273   1.349       .  A
Co1265    Cl1860   2.472       .  S
N1268     Co1522   2.106       .  S
N1269      C1525   1.354   1_554  A
N1269      N1527   1.331   1_554  A
Cl1272    Co1818   2.470   1_545  S
Cl1272    Co1853   2.472   1_545  S
C1273      N1338   1.423       .  S
N1275      C1847   1.370       .  A
C1276      N1294   1.343       .  A
C1276      C1313   1.461       .  S
N1277      N1294   1.318       .  A
N1277      N1299   1.327       .  A
N1277     Co1314   2.097       .  S
C1278      N1303   1.340       .  A
C1278      H1323   1.081   1_545  S
C1278      C1316   1.457       .  S
H1279      C1320   1.081       .  S
C1280      N1304   1.335       .  A
C1280      H1309   1.081       .  S
C1280      C1284   1.455       .  S
Co1281     N1299   2.085       .  S
Co1281     N1321   2.104       .  S
N1282      C1320   1.366       .  A
N1282      N1877   1.324   1_655  A
N1282     Co1283   2.165       .  S
Co1283     N1286   2.099       .  S
Co1283     N1891   2.081       .  S
Co1283     N1290   2.105       .  S
Co1283    Cl1913   2.469       .  S
C1284      N1322   1.355       .  A
N1285      N1292   1.318       .  A
N1285      N1315   1.323       .  A
N1286      N1304   1.326       .  A
N1286      N1322   1.331       .  A
N1287      C1316   1.347       .  A
N1287      N1297   1.323       .  A
H1288      C1313   1.081       .  S
N1289      N1870   1.324   1_445  A
N1290      N1308   1.327       .  A
N1290      N1295   1.318       .  A
C1291      N1295   1.345       .  A
C1291      N1368   1.429       .  S
C1291      C1319   1.459       .  S
N1292      C1307   1.343       .  A
N1292     Co1902   2.100       .  S
C1293      N1321   1.336       .  A
C1293      H1327   1.081       .  S
C1293      C1296   1.457       .  S
C1296      N1317   1.359       .  A
C1296      N1365   1.443       .  S
N1297      N1303   1.317       .  A
N1298      C1324   1.365       .  A
N1298     Co1314   2.158       .  S
N1299      C1313   1.347       .  A
N1300      N1328   1.345       .  A
N1300     Co1318   2.161       .  S
H1301      C1324   1.081       .  S
H1302      C1319   1.081       .  S
N1303     Co1871   2.081   1_545  S
N1304     Co1318   2.104       .  S
N1305      N1317   1.332       .  A
N1305      N1321   1.326       .  A
N1305     Co1314   2.112       .  S
C1306      C1847   1.559       .  S
C1306      C1320   1.488       .  S
C1307      H1311   1.081       .  S
C1307      C1326   1.463       .  S
N1308      C1319   1.346       .  A
N1308     Co1318   2.078       .  S
C1312      C1324   1.487       .  S
Co1314     N1880   2.100   1_545  S
N1315      C1326   1.344       .  A
Co1318    Cl1913   2.476       .  S
Cl1325    Co1871   2.469   1_545  S
Cl1325    Co1906   2.476   1_545  S
C1326      N1361   1.425       .  S
C1329      C1331   1.540       .  S
C1329      C1333   1.553       .  S
C1329      C1332   1.543       .  S
C1329      C1388   1.500       .  S
C1330      C1334   1.539       .  S
C1330      C1336   1.524       .  S
C1330      C1335   1.524       .  S
C1330      C1412   1.499       .  S
C1331      C1339   1.374       .  A
C1331      C1334   1.391       .  A
C1332      C1343   1.394       .  A
C1332      C1335   1.380       .  A
C1333      C1347   1.394       .  A
C1333      C1336   1.380       .  A
C1334      C1337   1.386       .  A
C1335      C1341   1.363       .  A
C1336      C1344   1.366       .  A
C1337      N1338   1.355       .  A
C1337      H1350   1.080       .  S
N1338      C1339   1.349       .  A
C1339      H1340   1.083       .  S
C1341      N1342   1.350       .  A
C1341      H1351   1.081       .  S
N1342      C1343   1.363       .  A
C1343      H1349   1.082       .  S
C1344      N1345   1.350       .  A
C1344      H1346   1.083       .  S
N1345      C1347   1.358       .  A
C1347      H1348   1.082       .  S
C1352      C1354   1.547       .  S
C1352      C1356   1.529       .  S
C1352      C1355   1.566       .  S
C1352      C1403   1.497       .  S
C1353      C1357   1.531       .  S
C1353      C1359   1.516       .  S
C1353      C1358   1.544       .  S
C1353      C1379   1.500       .  S
C1354      C1362   1.380       .  A
C1354      C1357   1.388       .  A
C1355      C1366   1.402       .  A
C1355      C1358   1.393       .  A
C1356      C1370   1.389       .  A
C1356      C1359   1.371       .  A
C1357      C1360   1.381       .  A
C1358      C1364   1.374       .  A
C1359      C1367   1.364       .  A
C1360      N1361   1.354       .  A
C1360      H1373   1.082       .  S
N1361      C1362   1.351       .  A
C1362      H1363   1.082       .  S
C1364      N1365   1.352       .  A
C1364      H1374   1.081       .  S
N1365      C1366   1.359       .  A
C1366      H1372   1.079       .  S
C1367      N1368   1.350       .  A
C1367      H1369   1.083       .  S
N1368      C1370   1.360       .  A
C1370      H1371   1.082       .  S
C1375      C1376   1.395       .  A
C1375      C1380   1.388       .  A
C1375      H1385   1.085       .  S
C1376      C1377   1.395       .  A
C1376      C1381   1.434       .  S
C1377      C1378   1.372       .  A
C1377      S1382   1.807       .  S
C1378      C1379   1.410       .  A
C1378      H1383   1.082       .  S
C1379      C1380   1.423       .  A
C1380      S1384   1.807       .  S
C1381      C1386   1.392       .  A
C1381      C1390   1.392       .  A
S1382      H1398   1.406       .  S
S1384      H1395   1.402       .  S
C1386      C1387   1.380       .  A
C1386      S1391   1.810       .  S
C1387      C1388   1.413       .  A
C1387      H1392   1.075       .  S
C1388      C1389   1.424       .  A
C1389      C1390   1.384       .  A
C1389      S1393   1.809       .  S
C1390      H1394   1.085       .  S
S1391      H1396   1.407       .  S
S1393      H1397   1.398       .  S
C1399      C1400   1.391       .  A
C1399      C1404   1.383       .  A
C1399      H1409   1.086       .  S
C1400      C1401   1.403       .  A
C1400      C1405   1.438       .  S
C1401      C1402   1.380       .  A
C1401      S1406   1.807       .  S
C1402      C1403   1.398       .  A
C1402      H1407   1.072       .  S
C1403      C1404   1.428       .  A
C1404      S1408   1.819       .  S
C1405      C1410   1.398       .  A
C1405      C1414   1.385       .  A
S1406      H1422   1.407       .  S
S1408      H1419   1.392       .  S
C1410      C1411   1.389       .  A
C1410      S1415   1.808       .  S
C1411      C1706   1.405   1_554  A
C1411      H1710   1.073   1_554  S
C1412      C1705   1.405       .  A
C1412      C1413   1.435       .  A
C1413      C1708   1.374       .  A
C1413      S1417   1.822       .  S
C1414      C1707   1.374       .  A
C1414      H1418   1.086       .  S
S1415      H1420   1.407       .  S
H1416      C1705   1.073       .  S
S1417      H1421   1.393       .  S
C1423      C1424   1.385       .  A
C1423      C1428   1.378       .  A
C1423      H1433   1.086       .  S
C1424      C1425   1.398       .  A
C1424      C1429   1.432       .  S
C1425      C1426   1.382       .  A
C1425      S1430   1.807       .  S
C1426      C1427   1.402       .  A
C1426      H1431   1.066       .  S
C1427      C1428   1.435       .  A
C1428      S1432   1.824       .  S
C1429      C1434   1.393       .  A
C1429      C1438   1.389       .  A
S1430      H1446   1.406       .  S
S1432      H1443   1.392       .  S
C1434      C1435   1.381       .  A
C1434      S1439   1.809       .  S
C1435      C1436   1.410       .  A
C1435      H1440   1.074       .  S
C1436      C1437   1.428       .  A
C1437      C1438   1.381       .  A
C1437      S1441   1.812       .  S
C1438      H1442   1.085       .  S
S1439      H1444   1.408       .  S
S1441      H1445   1.398       .  S
C1447      C1448   1.398       .  A
C1447      C1452   1.386       .  A
C1447      H1457   1.085       .  S
C1448      C1449   1.397       .  A
C1448      C1453   1.435       .  S
C1449      C1450   1.371       .  A
C1449      S1454   1.808       .  S
C1450      C1451   1.410       .  A
C1450      H1455   1.083       .  S
C1451      C1452   1.417       .  A
C1452      S1456   1.805       .  S
C1453      C1458   1.399       .  A
C1453      C1462   1.386       .  A
S1454      H1470   1.406       .  S
S1456      H1467   1.404       .  S
C1458      C1459   1.384       .  A
C1458      S1463   1.809       .  S
C1459      C1460   1.406       .  A
C1459      H1464   1.075       .  S
C1460      C1461   1.432       .  A
C1461      C1462   1.377       .  A
C1461      S1465   1.815       .  S
C1462      H1466   1.086       .  S
S1463      H1468   1.407       .  S
S1465      H1469   1.397       .  S
C1471      C1473   1.537       .  S
C1471      C1475   1.550       .  S
C1471      C1474   1.536       .  S
C1471      C1754   1.492       .  S
C1472      C1476   1.545       .  S
C1472      C1478   1.527       .  S
C1472      C1477   1.527       .  S
C1472      C1721   1.500       .  S
C1473      C1481   1.375       .  A
C1474      C1485   1.389       .  A
C1475      C1489   1.396       .  A
C1476      C1479   1.389       .  A
C1477      C1483   1.369       .  A
C1478      C1486   1.363       .  A
C1479      N1480   1.353   1_556  A
C1479      H1492   1.078       .  S
N1480      C1557   1.422       .  S
C1481      H1482   1.082       .  S
C1483      H1493   1.083       .  S
N1484      C1485   1.357       .  A
N1484      C1517   1.431       .  S
C1485      H1491   1.082       .  S
C1486      H1488   1.081       .  S
N1487      C1489   1.362       .  A
C1489      H1490   1.082       .  S
C1494      C1496   1.540       .  S
C1494      C1498   1.543       .  S
C1494      C1497   1.546       .  S
C1494      C1730   1.494       .  S
C1495      C1499   1.527       .  S
C1495      C1501   1.541       .  S
C1495      C1500   1.525       .  S
C1495      C1745   1.496       .  S
C1496      C1504   1.376       .  A
C1496      C1499   1.386       .  A
C1497      C1508   1.393       .  A
C1497      C1500   1.380       .  A
C1498      C1512   1.391       .  A
C1498      C1501   1.382       .  A
C1499      C1502   1.380       .  A
C1500      C1506   1.366       .  A
C1501      C1509   1.372       .  A
C1502      N1503   1.354       .  A
C1502      H1515   1.082       .  S
N1503      C1504   1.350       .  A
N1503      C1610   1.422       .  S
C1504      H1505   1.083       .  S
C1506      N1507   1.349       .  A
C1506      H1516   1.083       .  S
N1507      C1508   1.358       .  A
N1507      C1570   1.429       .  S
C1508      H1514   1.082       .  S
C1509      N1510   1.355       .  A
C1509      H1511   1.081       .  S
N1510      C1512   1.360       .  A
N1510      C1578   1.439       .  S
C1512      H1513   1.082       .  S
C1517      C1554   1.464       .  S
N1518      N1535   1.318       .  A
N1518      N1540   1.327       .  A
N1518     Co1555   2.097       .  S
C1519      N1544   1.339       .  A
C1519      H1564   1.081   1_545  S
C1519      C1557   1.454       .  S
H1520      C1561   1.081       .  S
C1521      N1545   1.332       .  A
C1521      H1550   1.081       .  S
C1521      C1525   1.456       .  S
N1523      C1561   1.364       .  A
N1523      N2118   1.324   1_655  A
Co1524     N1527   2.091       .  S
Co1524     N2132   2.075   1_556  S
Co1524     N1531   2.099       .  S
Co1524    Cl2154   2.470       .  S
N1526      N1533   1.318       .  A
N1526      N1556   1.324       .  A
N1527      N1545   1.325       .  A
N1528      C1557   1.349       .  A
N1528      N1538   1.323       .  A
H1529      C1554   1.081       .  S
N1530      N2111   1.324   1_445  A
N1531      N1549   1.327       .  A
N1531      N1536   1.318       .  A
C1532      N1536   1.344       .  A
C1532      N1639   1.431       .  S
C1532      C1560   1.465       .  S
N1533      C1548   1.339       .  A
N1533     Co2143   2.072       .  S
C1534      N1562   1.332       .  A
C1534      H1568   1.081       .  S
C1534      C1537   1.458       .  S
C1537      N1558   1.352       .  A
C1537      N1636   1.435       .  S
N1538      N1544   1.317       .  A
N1539      C1565   1.365       .  A
N1539     Co1555   2.160       .  S
N1541      N1569   1.345       .  A
N1541     Co1559   2.158       .  S
H1542      C1565   1.081       .  S
H1543      C1560   1.081       .  S
N1544     Co2112   2.075   1_544  S
N1545     Co1559   2.099       .  S
N1546      N1558   1.330       .  A
N1546      N1562   1.326       .  A
N1546     Co1555   2.085       .  S
C1547      C1561   1.486       .  S
C1548      H1552   1.081       .  S
C1548      C1567   1.452       .  S
N1549      C1560   1.349       .  A
N1549     Co1559   2.095       .  S
C1553      N2157   1.370   1_545  A
C1553      C2188   1.559       .  S
Co1555     N2121   2.072   1_545  S
N1556      C1567   1.349       .  A
Co1559    Cl2154   2.472       .  S
Cl1566    Co2112   2.470   1_545  S
Cl1566    Co2147   2.472   1_545  S
C1567      N1632   1.423       .  S
N1569      C2141   1.370       .  A
C1570      N1588   1.343       .  A
C1570      C1607   1.461       .  S
N1571      N1588   1.318       .  A
N1571      N1593   1.327       .  A
N1571     Co1608   2.097       .  S
C1572      N1597   1.340       .  A
C1572      H1617   1.081   1_545  S
C1572      C1610   1.457       .  S
H1573      C1614   1.081       .  S
C1574      N1598   1.335       .  A
C1574      H1603   1.081       .  S
C1574      C1578   1.455       .  S
Co1575     N1593   2.085       .  S
Co1575     N1615   2.104       .  S
N1576      C1614   1.366       .  A
N1576      N2171   1.324   1_655  A
N1576     Co1577   2.165       .  S
Co1577     N1580   2.099       .  S
Co1577     N2185   2.081       .  S
Co1577     N1584   2.105       .  S
Co1577    Cl2207   2.469       .  S
C1578      N1616   1.355       .  A
N1579      N1586   1.318       .  A
N1579      N1609   1.323       .  A
N1580      N1598   1.326       .  A
N1580      N1616   1.331       .  A
N1581      C1610   1.347       .  A
N1581      N1591   1.323       .  A
H1582      C1607   1.081       .  S
N1583      N2164   1.324   1_445  A
N1584      N1602   1.327       .  A
N1584      N1589   1.318       .  A
C1585      N1589   1.345       .  A
C1585      N1662   1.429       .  S
C1585      C1613   1.459       .  S
N1586      C1601   1.343       .  A
N1586     Co2196   2.100       .  S
C1587      N1615   1.336       .  A
C1587      H1621   1.081       .  S
C1587      C1590   1.457       .  S
C1590      N1611   1.359       .  A
C1590      N1659   1.443       .  S
N1591      N1597   1.317       .  A
N1592      C1618   1.365       .  A
N1592     Co1608   2.158       .  S
N1593      C1607   1.347       .  A
N1594      N1622   1.345       .  A
N1594     Co1612   2.161       .  S
H1595      C1618   1.081       .  S
H1596      C1613   1.081       .  S
N1597     Co2165   2.081   1_545  S
N1598     Co1612   2.104       .  S
N1599      N1611   1.332       .  A
N1599      N1615   1.326       .  A
N1599     Co1608   2.112       .  S
C1600      C2141   1.559       .  S
C1600      C1614   1.488       .  S
C1601      H1605   1.081       .  S
C1601      C1620   1.463       .  S
N1602      C1613   1.346       .  A
N1602     Co1612   2.078       .  S
C1606      C1618   1.487       .  S
Co1608     N2174   2.100   1_545  S
N1609      C1620   1.344       .  A
Co1612    Cl2207   2.476       .  S
Cl1619    Co2165   2.469   1_545  S
Cl1619    Co2200   2.476   1_545  S
C1620      N1655   1.425       .  S
C1623      C1625   1.540       .  S
C1623      C1627   1.553       .  S
C1623      C1626   1.543       .  S
C1623      C1682   1.500       .  S
C1624      C1628   1.539       .  S
C1624      C1630   1.524       .  S
C1624      C1629   1.524       .  S
C1624      C1706   1.499       .  S
C1625      C1633   1.374       .  A
C1625      C1628   1.391       .  A
C1626      C1637   1.394       .  A
C1626      C1629   1.380       .  A
C1627      C1641   1.394       .  A
C1627      C1630   1.380       .  A
C1628      C1631   1.386       .  A
C1629      C1635   1.363       .  A
C1630      C1638   1.366       .  A
C1631      N1632   1.355       .  A
C1631      H1644   1.080       .  S
N1632      C1633   1.349       .  A
C1633      H1634   1.083       .  S
C1635      N1636   1.350       .  A
C1635      H1645   1.081       .  S
N1636      C1637   1.363       .  A
C1637      H1643   1.082       .  S
C1638      N1639   1.350       .  A
C1638      H1640   1.083       .  S
N1639      C1641   1.358       .  A
C1641      H1642   1.082       .  S
C1646      C1648   1.547       .  S
C1646      C1650   1.529       .  S
C1646      C1649   1.566       .  S
C1646      C1697   1.497       .  S
C1647      C1651   1.531       .  S
C1647      C1653   1.516       .  S
C1647      C1652   1.544       .  S
C1647      C1673   1.500       .  S
C1648      C1656   1.380       .  A
C1648      C1651   1.388       .  A
C1649      C1660   1.402       .  A
C1649      C1652   1.393       .  A
C1650      C1664   1.389       .  A
C1650      C1653   1.371       .  A
C1651      C1654   1.381       .  A
C1652      C1658   1.374       .  A
C1653      C1661   1.364       .  A
C1654      N1655   1.354       .  A
C1654      H1667   1.082       .  S
N1655      C1656   1.351       .  A
C1656      H1657   1.082       .  S
C1658      N1659   1.352       .  A
C1658      H1668   1.081       .  S
N1659      C1660   1.359       .  A
C1660      H1666   1.079       .  S
C1661      N1662   1.350       .  A
C1661      H1663   1.083       .  S
N1662      C1664   1.360       .  A
C1664      H1665   1.082       .  S
C1669      C1670   1.395       .  A
C1669      C1674   1.388       .  A
C1669      H1679   1.085       .  S
C1670      C1671   1.395       .  A
C1670      C1675   1.434       .  S
C1671      C1672   1.372       .  A
C1671      S1676   1.807       .  S
C1672      C1673   1.410       .  A
C1672      H1677   1.082       .  S
C1673      C1674   1.423       .  A
C1674      S1678   1.807       .  S
C1675      C1680   1.392       .  A
C1675      C1684   1.392       .  A
S1676      H1692   1.406       .  S
S1678      H1689   1.402       .  S
C1680      C1681   1.380       .  A
C1680      S1685   1.810       .  S
C1681      C1682   1.413       .  A
C1681      H1686   1.075       .  S
C1682      C1683   1.424       .  A
C1683      C1684   1.384       .  A
C1683      S1687   1.809       .  S
C1684      H1688   1.085       .  S
S1685      H1690   1.407       .  S
S1687      H1691   1.398       .  S
C1693      C1694   1.391       .  A
C1693      C1698   1.383       .  A
C1693      H1703   1.086       .  S
C1694      C1695   1.403       .  A
C1694      C1699   1.438       .  S
C1695      C1696   1.380       .  A
C1695      S1700   1.807       .  S
C1696      C1697   1.398       .  A
C1696      H1701   1.072       .  S
C1697      C1698   1.428       .  A
C1698      S1702   1.819       .  S
C1699      C1704   1.398       .  A
C1699      C1708   1.385       .  A
S1700      H1716   1.407       .  S
S1702      H1713   1.392       .  S
C1704      C1705   1.389       .  A
C1704      S1709   1.808       .  S
C1706      C1707   1.435   1_556  A
C1707      S1711   1.822   1_554  S
C1708      H1712   1.086       .  S
S1709      H1714   1.407       .  S
S1711      H1715   1.393       .  S
C1717      C1718   1.385       .  A
C1717      C1722   1.378       .  A
C1717      H1727   1.086       .  S
C1718      C1719   1.398       .  A
C1718      C1723   1.432       .  S
C1719      C1720   1.382       .  A
C1719      S1724   1.807       .  S
C1720      C1721   1.402       .  A
C1720      H1725   1.066       .  S
C1721      C1722   1.435       .  A
C1722      S1726   1.824       .  S
C1723      C1728   1.393       .  A
C1723      C1732   1.389       .  A
S1724      H1740   1.406       .  S
S1726      H1737   1.392       .  S
C1728      C1729   1.381       .  A
C1728      S1733   1.809       .  S
C1729      C1730   1.410       .  A
C1729      H1734   1.074       .  S
C1730      C1731   1.428       .  A
C1731      C1732   1.381       .  A
C1731      S1735   1.812       .  S
C1732      H1736   1.085       .  S
S1733      H1738   1.408       .  S
S1735      H1739   1.398       .  S
C1741      C1742   1.398       .  A
C1741      C1746   1.386       .  A
C1741      H1751   1.085       .  S
C1742      C1743   1.397       .  A
C1742      C1747   1.435       .  S
C1743      C1744   1.371       .  A
C1743      S1748   1.808       .  S
C1744      C1745   1.410       .  A
C1744      H1749   1.083       .  S
C1745      C1746   1.417       .  A
C1746      S1750   1.805       .  S
C1747      C1752   1.399       .  A
C1747      C1756   1.386       .  A
S1748      H1764   1.406       .  S
S1750      H1761   1.404       .  S
C1752      C1753   1.384       .  A
C1752      S1757   1.809       .  S
C1753      C1754   1.406       .  A
C1753      H1758   1.075       .  S
C1754      C1755   1.432       .  A
C1755      C1756   1.377       .  A
C1755      S1759   1.815       .  S
C1756      H1760   1.086       .  S
S1757      H1762   1.407       .  S
S1759      H1763   1.397       .  S
C1765      C1767   1.537       .  S
C1765      C1769   1.550       .  S
C1765      C1768   1.536       .  S
C1765      C2048   1.492       .  S
C1766      C1770   1.545       .  S
C1766      C1772   1.527       .  S
C1766      C1771   1.527       .  S
C1766      C2015   1.500       .  S
C1767      C1775   1.375       .  A
C1767      C2064   1.391   1_554  A
C1768      C1779   1.389       .  A
C1768      C2065   1.376   1_554  A
C1769      C1783   1.396       .  A
C1769      C2066   1.384   1_554  A
C1770      C2061   1.391       .  A
C1770      C1773   1.389       .  A
C1771      C2062   1.376       .  A
C1771      C1777   1.369       .  A
C1772      C2063   1.384       .  A
C1772      C1780   1.363       .  A
C1773      N1774   1.353       .  A
C1773      H1786   1.078       .  S
N1774      C2069   1.347       .  A
N1774      C1851   1.422       .  S
C1775      N2068   1.347       .  A
C1775      H1776   1.082       .  S
C1777      N2072   1.352       .  A
C1777      H1787   1.083       .  S
N1778      C2071   1.352       .  A
N1778      C1779   1.357   1_556  A
N1778      C1811   1.431       .  S
C1779      H1785   1.082       .  S
C1780      N2075   1.352       .  A
C1780      H1782   1.081       .  S
N1781      C2074   1.352       .  A
N1781      C1783   1.362   1_556  A
N1781      C2113   1.436       .  S
C1783      H1784   1.082       .  S
C1788      C1790   1.540       .  S
C1788      C1792   1.543       .  S
C1788      C1791   1.546       .  S
C1788      C2024   1.494       .  S
C1789      C1793   1.527       .  S
C1789      C1795   1.541       .  S
C1789      C1794   1.525       .  S
C1789      C2039   1.496       .  S
C1790      C1798   1.376       .  A
C1790      C1793   1.386       .  A
C1791      C1802   1.393       .  A
C1791      C1794   1.380       .  A
C1792      C1806   1.391       .  A
C1792      C1795   1.382       .  A
C1793      C1796   1.380       .  A
C1794      C1800   1.366       .  A
C1795      C1803   1.372       .  A
C1796      N1797   1.354       .  A
C1796      H1809   1.082       .  S
N1797      C1798   1.350       .  A
N1797      C1904   1.422       .  S
C1798      H1799   1.083       .  S
C1800      N1801   1.349       .  A
C1800      H1810   1.083       .  S
N1801      C1802   1.358       .  A
N1801      C1864   1.429       .  S
C1802      H1808   1.082       .  S
C1803      N1804   1.355       .  A
C1803      H1805   1.081       .  S
N1804      C1806   1.360       .  A
N1804      C1872   1.439       .  S
C1806      H1807   1.082       .  S
C1811      N2123   1.343       .  A
C1811      C1848   1.464   1_556  S
N1812      N1829   1.318       .  A
N1812      N1834   1.327       .  A
N1812     Co1849   2.097       .  S
C1813      N1838   1.339       .  A
C1813      H1858   1.081       .  S
C1813      C1851   1.454       .  S
H1814      C1855   1.081       .  S
C1815      N1839   1.332       .  A
C1815      H1844   1.081       .  S
C1815      C1819   1.456       .  S
Co1816     N2128   2.094   1_554  S
Co1816     N2150   2.106   1_554  S
N1817      C1855   1.364       .  A
N1817     Co2112   2.158   1_554  S
Co1818     N2111   2.158       .  S
Co1818     N1821   2.091       .  S
Co1818     N1825   2.099       .  S
C1819      N2151   1.354       .  A
C1819      N2075   1.436       .  S
N1820      N1827   1.318       .  A
N1820      N1850   1.324       .  A
N1821      N1839   1.325       .  A
N1821      N2151   1.331       .  A
N1822      C1851   1.349       .  A
N1822      N1832   1.323       .  A
H1823      C1848   1.081       .  S
N1825      N1843   1.327       .  A
N1825      N1830   1.318       .  A
C1826      N1830   1.344       .  A
C1826      N1933   1.431       .  S
C1826      C1854   1.465       .  S
N1827      C1842   1.339       .  A
C1828      N1856   1.332       .  A
C1828      H1862   1.081       .  S
C1828      C1831   1.458       .  S
N1829      C2105   1.343       .  A
C1831      N1852   1.352       .  A
C1831      N1930   1.435       .  S
N1832      N1838   1.317       .  A
N1833      C1859   1.365       .  A
N1833     Co1849   2.160       .  S
N1834      C2142   1.349       .  A
N1834     Co2110   2.094       .  S
N1835      N1863   1.345       .  A
N1835     Co1853   2.158       .  S
H1836      C1859   1.081       .  S
H1837      C1854   1.081       .  S
N1839     Co1853   2.099       .  S
N1840      N1852   1.330       .  A
N1840      N1856   1.326       .  A
N1840     Co1849   2.085       .  S
C1841      C1855   1.486   1_545  S
C1842      H1846   1.081   1_565  S
C1842      C1861   1.452       .  S
N1843      C1854   1.349       .  A
N1843     Co1853   2.095       .  S
C1848      N2128   1.349   1_554  A
N1850      C1861   1.349       .  A
N1856     Co2110   2.106       .  S
N1857      C2113   1.354   1_554  A
N1857      N2115   1.331   1_554  A
C1861      N1926   1.423       .  S
C1864      N1882   1.343       .  A
C1864      C1901   1.461       .  S
N1865      N1882   1.318       .  A
N1865      N1887   1.327       .  A
N1865     Co1902   2.097       .  S
C1866      N1891   1.340       .  A
C1866      H1911   1.081       .  S
C1866      C1904   1.457       .  S
H1867      C1908   1.081       .  S
C1868      N1892   1.335       .  A
C1868      H1897   1.081       .  S
C1868      C1872   1.455       .  S
Co1869     N1887   2.085       .  S
Co1869     N1909   2.104       .  S
N1870      C1908   1.366       .  A
N1870     Co1871   2.165       .  S
Co1871     N1874   2.099       .  S
Co1871     N1878   2.105       .  S
C1872      N1910   1.355       .  A
N1873      N1880   1.318       .  A
N1873      N1903   1.323       .  A
N1874      N1892   1.326       .  A
N1874      N1910   1.331       .  A
N1875      C1904   1.347       .  A
N1875      N1885   1.323       .  A
H1876      C1901   1.081       .  S
N1878      N1896   1.327       .  A
N1878      N1883   1.318       .  A
C1879      N1883   1.345       .  A
C1879      N1956   1.429       .  S
C1879      C1907   1.459       .  S
N1880      C1895   1.343       .  A
C1881      N1909   1.336       .  A
C1881      H1915   1.081       .  S
C1881      C1884   1.457       .  S
C1884      N1905   1.359       .  A
C1884      N1953   1.443       .  S
N1885      N1891   1.317       .  A
N1886      C1912   1.365       .  A
N1886     Co1902   2.158       .  S
N1887      C1901   1.347       .  A
N1888      N1916   1.345       .  A
N1888     Co1906   2.161       .  S
H1889      C1912   1.081       .  S
H1890      C1907   1.081       .  S
N1892     Co1906   2.104       .  S
N1893      N1905   1.332       .  A
N1893      N1909   1.326       .  A
N1893     Co1902   2.112       .  S
C1894      C1908   1.488   1_545  S
C1895      H1899   1.081   1_565  S
C1895      C1914   1.463       .  S
N1896      C1907   1.346       .  A
N1896     Co1906   2.078       .  S
C1900      C1912   1.487       .  S
N1903      C1914   1.344       .  A
C1914      N1949   1.425       .  S
C1917      C1919   1.540       .  S
C1917      C1921   1.553       .  S
C1917      C1920   1.543       .  S
C1917      C1976   1.500       .  S
C1918      C1922   1.539       .  S
C1918      C1924   1.524       .  S
C1918      C1923   1.524       .  S
C1918      C2000   1.499       .  S
C1919      C1927   1.374       .  A
C1919      C1922   1.391       .  A
C1920      C1931   1.394       .  A
C1920      C1923   1.380       .  A
C1921      C1935   1.394       .  A
C1921      C1924   1.380       .  A
C1922      C1925   1.386       .  A
C1923      C1929   1.363       .  A
C1924      C1932   1.366       .  A
C1925      N1926   1.355       .  A
C1925      H1938   1.080       .  S
N1926      C1927   1.349       .  A
C1927      H1928   1.083       .  S
C1929      N1930   1.350       .  A
C1929      H1939   1.081       .  S
N1930      C1931   1.363       .  A
C1931      H1937   1.082       .  S
C1932      N1933   1.350       .  A
C1932      H1934   1.083       .  S
N1933      C1935   1.358       .  A
C1935      H1936   1.082       .  S
C1940      C1942   1.547       .  S
C1940      C1944   1.529       .  S
C1940      C1943   1.566       .  S
C1940      C1991   1.497       .  S
C1941      C1945   1.531       .  S
C1941      C1947   1.516       .  S
C1941      C1946   1.544       .  S
C1941      C1967   1.500       .  S
C1942      C1950   1.380       .  A
C1942      C1945   1.388       .  A
C1943      C1954   1.402       .  A
C1943      C1946   1.393       .  A
C1944      C1958   1.389       .  A
C1944      C1947   1.371       .  A
C1945      C1948   1.381       .  A
C1946      C1952   1.374       .  A
C1947      C1955   1.364       .  A
C1948      N1949   1.354       .  A
C1948      H1961   1.082       .  S
N1949      C1950   1.351       .  A
C1950      H1951   1.082       .  S
C1952      N1953   1.352       .  A
C1952      H1962   1.081       .  S
N1953      C1954   1.359       .  A
C1954      H1960   1.079       .  S
C1955      N1956   1.350       .  A
C1955      H1957   1.083       .  S
N1956      C1958   1.360       .  A
C1958      H1959   1.082       .  S
C1963      C1964   1.395       .  A
C1963      C1968   1.388       .  A
C1963      H1973   1.085       .  S
C1964      C1965   1.395       .  A
C1964      C1969   1.434       .  S
C1965      C1966   1.372       .  A
C1965      S1970   1.807       .  S
C1966      C1967   1.410       .  A
C1966      H1971   1.082       .  S
C1967      C1968   1.423       .  A
C1968      S1972   1.807       .  S
C1969      C1974   1.392       .  A
C1969      C1978   1.392       .  A
S1970      H1986   1.406       .  S
S1972      H1983   1.402       .  S
C1974      C1975   1.380       .  A
C1974      S1979   1.810       .  S
C1975      C1976   1.413       .  A
C1975      H1980   1.075       .  S
C1976      C1977   1.424       .  A
C1977      C1978   1.384       .  A
C1977      S1981   1.809       .  S
C1978      H1982   1.085       .  S
S1979      H1984   1.407       .  S
S1981      H1985   1.398       .  S
C1987      C1988   1.391       .  A
C1987      C1992   1.383       .  A
C1987      H1997   1.086       .  S
C1988      C1989   1.403       .  A
C1988      C1993   1.438       .  S
C1989      C1990   1.380       .  A
C1989      S1994   1.807       .  S
C1990      C1991   1.398       .  A
C1990      H1995   1.072       .  S
C1991      C1992   1.428       .  A
C1992      S1996   1.819       .  S
C1993      C1998   1.398       .  A
C1993      C2002   1.385       .  A
S1994      H2010   1.407       .  S
S1996      H2007   1.392       .  S
C1998      C1999   1.389       .  A
C1998      S2003   1.808       .  S
C1999      C2294   1.405   1_554  A
C1999      H2298   1.073   1_554  S
C2000      C2293   1.405       .  A
C2000      C2001   1.435       .  A
C2001      C2296   1.374       .  A
C2001      S2005   1.822       .  S
C2002      C2295   1.374       .  A
C2002      H2006   1.086       .  S
S2003      H2008   1.407       .  S
H2004      C2293   1.073       .  S
S2005      H2009   1.393       .  S
C2011      C2012   1.385       .  A
C2011      C2016   1.378       .  A
C2011      H2021   1.086       .  S
C2012      C2013   1.398       .  A
C2012      C2017   1.432       .  S
C2013      C2014   1.382       .  A
C2013      S2018   1.807       .  S
C2014      C2015   1.402       .  A
C2014      H2019   1.066       .  S
C2015      C2016   1.435       .  A
C2016      S2020   1.824       .  S
C2017      C2022   1.393       .  A
C2017      C2026   1.389       .  A
S2018      H2034   1.406       .  S
S2020      H2031   1.392       .  S
C2022      C2023   1.381       .  A
C2022      S2027   1.809       .  S
C2023      C2024   1.410       .  A
C2023      H2028   1.074       .  S
C2024      C2025   1.428       .  A
C2025      C2026   1.381       .  A
C2025      S2029   1.812       .  S
C2026      H2030   1.085       .  S
S2027      H2032   1.408       .  S
S2029      H2033   1.398       .  S
C2035      C2036   1.398       .  A
C2035      C2040   1.386       .  A
C2035      H2045   1.085       .  S
C2036      C2037   1.397       .  A
C2036      C2041   1.435       .  S
C2037      C2038   1.371       .  A
C2037      S2042   1.808       .  S
C2038      C2039   1.410       .  A
C2038      H2043   1.083       .  S
C2039      C2040   1.417       .  A
C2040      S2044   1.805       .  S
C2041      C2046   1.399       .  A
C2041      C2050   1.386       .  A
S2042      H2058   1.406       .  S
S2044      H2055   1.404       .  S
C2046      C2047   1.384       .  A
C2046      S2051   1.809       .  S
C2047      C2048   1.406       .  A
C2047      H2052   1.075       .  S
C2048      C2049   1.432       .  A
C2049      C2050   1.377       .  A
C2049      S2053   1.815       .  S
C2050      H2054   1.086       .  S
S2051      H2056   1.407       .  S
S2053      H2057   1.397       .  S
C2059      C2061   1.537       .  S
C2059      C2063   1.550       .  S
C2059      C2062   1.536       .  S
C2059      C2342   1.492       .  S
C2060      C2064   1.545       .  S
C2060      C2066   1.527       .  S
C2060      C2065   1.527       .  S
C2060      C2309   1.500       .  S
C2061      C2069   1.375       .  A
C2062      C2073   1.389       .  A
C2063      C2077   1.396       .  A
C2064      C2067   1.389       .  A
C2065      C2071   1.369       .  A
C2066      C2074   1.363       .  A
C2067      N2068   1.353   1_556  A
C2067      H2080   1.078       .  S
N2068      C2145   1.422       .  S
C2069      H2070   1.082       .  S
C2071      H2081   1.083       .  S
N2072      C2073   1.357       .  A
N2072      C2105   1.431       .  S
C2073      H2079   1.082       .  S
C2074      H2076   1.081       .  S
N2075      C2077   1.362       .  A
C2077      H2078   1.082       .  S
C2082      C2084   1.540       .  S
C2082      C2086   1.543       .  S
C2082      C2085   1.546       .  S
C2082      C2318   1.494       .  S
C2083      C2087   1.527       .  S
C2083      C2089   1.541       .  S
C2083      C2088   1.525       .  S
C2083      C2333   1.496       .  S
C2084      C2092   1.376       .  A
C2084      C2087   1.386       .  A
C2085      C2096   1.393       .  A
C2085      C2088   1.380       .  A
C2086      C2100   1.391       .  A
C2086      C2089   1.382       .  A
C2087      C2090   1.380       .  A
C2088      C2094   1.366       .  A
C2089      C2097   1.372       .  A
C2090      N2091   1.354       .  A
C2090      H2103   1.082       .  S
N2091      C2092   1.350       .  A
N2091      C2198   1.422       .  S
C2092      H2093   1.083       .  S
C2094      N2095   1.349       .  A
C2094      H2104   1.083       .  S
N2095      C2096   1.358       .  A
N2095      C2158   1.429       .  S
C2096      H2102   1.082       .  S
C2097      N2098   1.355       .  A
C2097      H2099   1.081       .  S
N2098      C2100   1.360       .  A
N2098      C2166   1.439       .  S
C2100      H2101   1.082       .  S
C2105      C2142   1.464       .  S
N2106      N2123   1.318       .  A
N2106      N2128   1.327       .  A
N2106     Co2143   2.097       .  S
C2107      N2132   1.339       .  A
C2107      H2152   1.081       .  S
C2107      C2145   1.454       .  S
H2108      C2149   1.081       .  S
C2109      N2133   1.332       .  A
C2109      H2138   1.081       .  S
C2109      C2113   1.456       .  S
N2111      C2149   1.364       .  A
Co2112     N2115   2.091       .  S
Co2112     N2119   2.099       .  S
N2114      N2121   1.318       .  A
N2114      N2144   1.324       .  A
N2115      N2133   1.325       .  A
N2116      C2145   1.349       .  A
N2116      N2126   1.323       .  A
H2117      C2142   1.081       .  S
N2119      N2137   1.327       .  A
N2119      N2124   1.318       .  A
C2120      N2124   1.344       .  A
C2120      N2227   1.431       .  S
C2120      C2148   1.465       .  S
N2121      C2136   1.339       .  A
C2122      N2150   1.332       .  A
C2122      H2156   1.081       .  S
C2122      C2125   1.458       .  S
C2125      N2146   1.352       .  A
C2125      N2224   1.435       .  S
N2126      N2132   1.317       .  A
N2127      C2153   1.365       .  A
N2127     Co2143   2.160       .  S
N2129      N2157   1.345       .  A
N2129     Co2147   2.158       .  S
H2130      C2153   1.081       .  S
H2131      C2148   1.081       .  S
N2133     Co2147   2.099       .  S
N2134      N2146   1.330       .  A
N2134      N2150   1.326       .  A
N2134     Co2143   2.085       .  S
C2135      C2149   1.486   1_545  S
C2136      H2140   1.081   1_565  S
C2136      C2155   1.452       .  S
N2137      C2148   1.349       .  A
N2137     Co2147   2.095       .  S
N2144      C2155   1.349       .  A
C2155      N2220   1.423       .  S
C2158      N2176   1.343       .  A
C2158      C2195   1.461       .  S
N2159      N2176   1.318       .  A
N2159      N2181   1.327       .  A
N2159     Co2196   2.097       .  S
C2160      N2185   1.340       .  A
C2160      H2205   1.081       .  S
C2160      C2198   1.457       .  S
H2161      C2202   1.081       .  S
C2162      N2186   1.335       .  A
C2162      H2191   1.081       .  S
C2162      C2166   1.455       .  S
Co2163     N2181   2.085       .  S
Co2163     N2203   2.104       .  S
N2164      C2202   1.366       .  A
N2164     Co2165   2.165       .  S
Co2165     N2168   2.099       .  S
Co2165     N2172   2.105       .  S
C2166      N2204   1.355       .  A
N2167      N2174   1.318       .  A
N2167      N2197   1.323       .  A
N2168      N2186   1.326       .  A
N2168      N2204   1.331       .  A
N2169      C2198   1.347       .  A
N2169      N2179   1.323       .  A
H2170      C2195   1.081       .  S
N2172      N2190   1.327       .  A
N2172      N2177   1.318       .  A
C2173      N2177   1.345       .  A
C2173      N2250   1.429       .  S
C2173      C2201   1.459       .  S
N2174      C2189   1.343       .  A
C2175      N2203   1.336       .  A
C2175      H2209   1.081       .  S
C2175      C2178   1.457       .  S
C2178      N2199   1.359       .  A
C2178      N2247   1.443       .  S
N2179      N2185   1.317       .  A
N2180      C2206   1.365       .  A
N2180     Co2196   2.158       .  S
N2181      C2195   1.347       .  A
N2182      N2210   1.345       .  A
N2182     Co2200   2.161       .  S
H2183      C2206   1.081       .  S
H2184      C2201   1.081       .  S
N2186     Co2200   2.104       .  S
N2187      N2199   1.332       .  A
N2187      N2203   1.326       .  A
N2187     Co2196   2.112       .  S
C2188      C2202   1.488   1_545  S
C2189      H2193   1.081   1_565  S
C2189      C2208   1.463       .  S
N2190      C2201   1.346       .  A
N2190     Co2200   2.078       .  S
C2194      C2206   1.487       .  S
N2197      C2208   1.344       .  A
C2208      N2243   1.425       .  S
C2211      C2213   1.540       .  S
C2211      C2215   1.553       .  S
C2211      C2214   1.543       .  S
C2211      C2270   1.500       .  S
C2212      C2216   1.539       .  S
C2212      C2218   1.524       .  S
C2212      C2217   1.524       .  S
C2212      C2294   1.499       .  S
C2213      C2221   1.374       .  A
C2213      C2216   1.391       .  A
C2214      C2225   1.394       .  A
C2214      C2217   1.380       .  A
C2215      C2229   1.394       .  A
C2215      C2218   1.380       .  A
C2216      C2219   1.386       .  A
C2217      C2223   1.363       .  A
C2218      C2226   1.366       .  A
C2219      N2220   1.355       .  A
C2219      H2232   1.080       .  S
N2220      C2221   1.349       .  A
C2221      H2222   1.083       .  S
C2223      N2224   1.350       .  A
C2223      H2233   1.081       .  S
N2224      C2225   1.363       .  A
C2225      H2231   1.082       .  S
C2226      N2227   1.350       .  A
C2226      H2228   1.083       .  S
N2227      C2229   1.358       .  A
C2229      H2230   1.082       .  S
C2234      C2236   1.547       .  S
C2234      C2238   1.529       .  S
C2234      C2237   1.566       .  S
C2234      C2285   1.497       .  S
C2235      C2239   1.531       .  S
C2235      C2241   1.516       .  S
C2235      C2240   1.544       .  S
C2235      C2261   1.500       .  S
C2236      C2244   1.380       .  A
C2236      C2239   1.388       .  A
C2237      C2248   1.402       .  A
C2237      C2240   1.393       .  A
C2238      C2252   1.389       .  A
C2238      C2241   1.371       .  A
C2239      C2242   1.381       .  A
C2240      C2246   1.374       .  A
C2241      C2249   1.364       .  A
C2242      N2243   1.354       .  A
C2242      H2255   1.082       .  S
N2243      C2244   1.351       .  A
C2244      H2245   1.082       .  S
C2246      N2247   1.352       .  A
C2246      H2256   1.081       .  S
N2247      C2248   1.359       .  A
C2248      H2254   1.079       .  S
C2249      N2250   1.350       .  A
C2249      H2251   1.083       .  S
N2250      C2252   1.360       .  A
C2252      H2253   1.082       .  S
C2257      C2258   1.395       .  A
C2257      C2262   1.388       .  A
C2257      H2267   1.085       .  S
C2258      C2259   1.395       .  A
C2258      C2263   1.434       .  S
C2259      C2260   1.372       .  A
C2259      S2264   1.807       .  S
C2260      C2261   1.410       .  A
C2260      H2265   1.082       .  S
C2261      C2262   1.423       .  A
C2262      S2266   1.807       .  S
C2263      C2268   1.392       .  A
C2263      C2272   1.392       .  A
S2264      H2280   1.406       .  S
S2266      H2277   1.402       .  S
C2268      C2269   1.380       .  A
C2268      S2273   1.810       .  S
C2269      C2270   1.413       .  A
C2269      H2274   1.075       .  S
C2270      C2271   1.424       .  A
C2271      C2272   1.384       .  A
C2271      S2275   1.809       .  S
C2272      H2276   1.085       .  S
S2273      H2278   1.407       .  S
S2275      H2279   1.398       .  S
C2281      C2282   1.391       .  A
C2281      C2286   1.383       .  A
C2281      H2291   1.086       .  S
C2282      C2283   1.403       .  A
C2282      C2287   1.438       .  S
C2283      C2284   1.380       .  A
C2283      S2288   1.807       .  S
C2284      C2285   1.398       .  A
C2284      H2289   1.072       .  S
C2285      C2286   1.428       .  A
C2286      S2290   1.819       .  S
C2287      C2292   1.398       .  A
C2287      C2296   1.385       .  A
S2288      H2304   1.407       .  S
S2290      H2301   1.392       .  S
C2292      C2293   1.389       .  A
C2292      S2297   1.808       .  S
C2294      C2295   1.435   1_556  A
C2295      S2299   1.822   1_554  S
C2296      H2300   1.086       .  S
S2297      H2302   1.407       .  S
S2299      H2303   1.393       .  S
C2305      C2306   1.385       .  A
C2305      C2310   1.378       .  A
C2305      H2315   1.086       .  S
C2306      C2307   1.398       .  A
C2306      C2311   1.432       .  S
C2307      C2308   1.382       .  A
C2307      S2312   1.807       .  S
C2308      C2309   1.402       .  A
C2308      H2313   1.066       .  S
C2309      C2310   1.435       .  A
C2310      S2314   1.824       .  S
C2311      C2316   1.393       .  A
C2311      C2320   1.389       .  A
S2312      H2328   1.406       .  S
S2314      H2325   1.392       .  S
C2316      C2317   1.381       .  A
C2316      S2321   1.809       .  S
C2317      C2318   1.410       .  A
C2317      H2322   1.074       .  S
C2318      C2319   1.428       .  A
C2319      C2320   1.381       .  A
C2319      S2323   1.812       .  S
C2320      H2324   1.085       .  S
S2321      H2326   1.408       .  S
S2323      H2327   1.398       .  S
C2329      C2330   1.398       .  A
C2329      C2334   1.386       .  A
C2329      H2339   1.085       .  S
C2330      C2331   1.397       .  A
C2330      C2335   1.435       .  S
C2331      C2332   1.371       .  A
C2331      S2336   1.808       .  S
C2332      C2333   1.410       .  A
C2332      H2337   1.083       .  S
C2333      C2334   1.417       .  A
C2334      S2338   1.805       .  S
C2335      C2340   1.399       .  A
C2335      C2344   1.386       .  A
S2336      H2352   1.406       .  S
S2338      H2349   1.404       .  S
C2340      C2341   1.384       .  A
C2340      S2345   1.809       .  S
C2341      C2342   1.406       .  A
C2341      H2346   1.075       .  S
C2342      C2343   1.432       .  A
C2343      C2344   1.377       .  A
C2343      S2347   1.815       .  S
C2344      H2348   1.086       .  S
S2345      H2350   1.407       .  S
S2347      H2351   1.397       .  S
