geometry optimzed in LAMMPS
_audit_creation_date              2020-11-30 
_audit_creation_method            'lammps2cif' 
_symmetry_space_group_name_H-M    'P1' 
_symmetry_Int_Tables_number       1 
_symmetry_cell_setting            triclinic 
loop_ 
_symmetry_equiv_pos_as_xyz 
  x,y,z 
_cell_length_a                    34.54456258 
_cell_length_b                    34.54740161572985 
_cell_length_c                    34.55609141730036 
_cell_angle_alpha                 90.00902202054371 
_cell_angle_beta                  90.00130077456981 
_cell_angle_gamma                 89.99422099994368 
loop_ 
_atom_site_label 
_atom_site_type_symbol 
_atom_site_fract_x 
_atom_site_fract_y 
_atom_site_fract_z 
_atom_site_charge 
C1          C  0.15301186  0.74552579  0.96508622     0.82700
N2          N  0.11448866  0.75256263  0.96514087    -0.75600
C3          C  0.09535591  0.75537341  0.99918685     0.85100
N4          N  0.11442202  0.75068789  0.03303593    -0.75600
C5          C  0.15290731  0.74361189  0.03280143     0.85200
N6          N  0.17232552  0.74099858  0.99887635    -0.77300
C7          C  0.33580232  0.59741826  0.03322670     0.82700
N8          N  0.33674808  0.55813754  0.03336846    -0.75600
C9          C  0.33801627  0.53828119  0.99948475     0.85100
N10         N  0.33809836  0.55778191  0.96532447    -0.75600
C11         C  0.33717251  0.59711207  0.96505587     0.85200
N12         N  0.33584892  0.61687720  0.99904704    -0.77300
C13         C  0.92110624  0.21333819  0.03445452     0.82700
N14         N  0.95930490  0.20454626  0.03466658    -0.75600
C15         C  0.97839662  0.20006332  0.00073096     0.85100
N16         N  0.95960706  0.20490979  0.96673292    -0.75600
C17         C  0.92146750  0.21371940  0.96667329     0.85200
N18         N  0.90212005  0.21798851  0.00048421    -0.77300
C19         C  0.73696183  0.36277719  0.96598338     0.82700
N20         N  0.73791607  0.34297991  0.99998125    -0.75600
C21         C  0.73780659  0.36243022  0.03420279     0.85100
N22         N  0.73708064  0.40178079  0.03430144    -0.75600
C23         C  0.73618493  0.42160692  0.00032689     0.85200
N24         N  0.73624683  0.40205633  0.96624898    -0.77300
C25         C  0.80321007  0.94573504  0.11610128     0.82700
N26         N  0.79890135  0.97947098  0.13557087    -0.75600
C27         C  0.80251279  0.01349855  0.11648433     0.85100
N28         N  0.81031472  0.01386666  0.07811784    -0.75600
C29         C  0.81479894  0.98003217  0.05889556     0.85200
N30         N  0.81099903  0.94593084  0.07774687    -0.77300
C31         C  0.65442342  0.01333658  0.29900794     0.82700
N32         N  0.61514298  0.01332272  0.30102214    -0.75600
C33         C  0.59543584  0.97933219  0.30280603     0.85100
N34         N  0.61508235  0.94525227  0.30232434    -0.75600
C35         C  0.65436781  0.94508481  0.30031629     0.85200
N36         N  0.67398921  0.97917090  0.29849121    -0.77300
C37         C  0.27387770  0.01344888  0.88515277     0.82700
N38         N  0.27756443  0.97961599  0.86572433    -0.75600
C39         C  0.27408984  0.94568944  0.88501805     0.85100
N40         N  0.26701982  0.94551466  0.92350812    -0.75600
C41         C  0.26316084  0.97944107  0.94266223     0.85200
N42         N  0.26680331  0.01344872  0.92363509    -0.77300
C43         C  0.42049583  0.94600760  0.69983352     0.82700
N44         N  0.40044941  0.97985042  0.70147990    -0.75600
C45         C  0.41960368  0.01424029  0.70112103     0.85100
N46         N  0.45891400  0.01468499  0.69946383    -0.75600
C47         C  0.47902025  0.98089970  0.69786087     0.85200
N48         N  0.45976900  0.94662186  0.69818518    -0.77300
C49         C  0.92176171  0.74603254  0.03469357     0.82700
N50         N  0.96029016  0.75299777  0.03441296    -0.75600
C51         C  0.97923893  0.75574681  0.00026918     0.85100
N52         N  0.95998692  0.75104999  0.96653484    -0.75600
C53         C  0.92149409  0.74404647  0.96696263     0.85200
N54         N  0.90223989  0.74149665  0.00100287    -0.77300
C55         C  0.73829115  0.59898671  0.03340994     0.82700
N56         N  0.73983250  0.61855011  0.99930302    -0.75600
C57         C  0.73980019  0.59887692  0.96521224     0.85100
N58         N  0.73854346  0.55954958  0.96533909    -0.75600
C59         C  0.73705576  0.53995195  0.99941547     0.85200
N60         N  0.73704549  0.55971402  0.03337613    -0.77300
C61         C  0.15183390  0.21397910  0.96701017     0.82700
N62         N  0.11356700  0.20548548  0.96657704    -0.75600
C63         C  0.09451333  0.19988983  0.00037078     0.85100
N64         N  0.11341887  0.20328647  0.03448472    -0.75600
C65         C  0.15163546  0.21176316  0.03478963     0.85200
N66         N  0.17093614  0.21716708  0.00109906    -0.77300
C67         C  0.33530557  0.36113393  0.96640331     0.82700
N68         N  0.33659628  0.40039395  0.96656379    -0.75600
C69         C  0.33729117  0.42000180  0.00059518     0.85100
N70         N  0.33648068  0.40027043  0.03460927    -0.75600
C71         C  0.33519218  0.36094949  0.03459689     0.85200
N72         N  0.33444151  0.34141893  0.00044017    -0.77300
C73         C  0.80314866  0.94779034  0.88479574     0.82700
N74         N  0.81047725  0.94715228  0.92326347    -0.75600
C75         C  0.81513381  0.98083471  0.94272642     0.85100
N76         N  0.81199403  0.01508313  0.92401976    -0.75600
C77         C  0.80467504  0.01560529  0.88557661     0.85200
N78         N  0.80019806  0.98199990  0.86585709    -0.77300
C79         C  0.65644686  0.01493641  0.70148643     0.82700
N80         N  0.61717550  0.01496099  0.69961319    -0.75600
C81         C  0.59741029  0.98098860  0.69864831     0.85100
N82         N  0.61699575  0.94688458  0.69979493    -0.75600
C83         C  0.65629159  0.94670925  0.70167550     0.85200
N84         N  0.67596716  0.98078066  0.70267647    -0.77300
C85         C  0.27219842  0.01347782  0.11652034     0.82700
N86         N  0.26549834  0.01347932  0.07796909    -0.75600
C87         C  0.26302319  0.97947161  0.05874549     0.85100
N88         N  0.26767660  0.94558844  0.07777295    -0.75600
C89         C  0.27441498  0.94579176  0.11631465     0.85200
N90         N  0.27669534  0.97968776  0.13581489    -0.77300
C91         C  0.41830084  0.94472335  0.29883031     0.82700
N92         N  0.45756956  0.94503847  0.30095337    -0.75600
C93         C  0.47701139  0.97918209  0.30264394     0.85100
N94         N  0.45710667  0.01310805  0.30197024    -0.75600
C95         C  0.41782513  0.01296800  0.29986079     0.85200
N96         N  0.39847015  0.97872931  0.29812180    -0.77300
C97         C  0.00280443  0.09620355  0.77066764     0.82700
N98         N  0.03655003  0.11546960  0.76560915    -0.75600
C99         C  0.07054955  0.09624326  0.76869988     0.85100
N100        N  0.07089558  0.05793262  0.77672022    -0.75600
C101        C  0.03709232  0.03887058  0.78195453     0.85200
N102        N  0.00296760  0.05784888  0.77864012    -0.77300
C103        C  0.00311254  0.27862822  0.61832313     0.82700
N104        N  0.03726816  0.27705769  0.63778738    -0.75600
C105        C  0.07130247  0.27682431  0.61804681     0.85100
N106        N  0.07109822  0.27787842  0.57873101    -0.75600
C107        C  0.03697825  0.27939405  0.55919822     0.85200
N108        N  0.00303541  0.27966383  0.57903665    -0.77300
C109        C  0.07341210  0.86595401  0.76830799     0.82700
N110        N  0.07295897  0.90418370  0.77686787    -0.75600
C111        C  0.03870833  0.92276459  0.78103302     0.85100
N112        N  0.00501301  0.90343961  0.77610058    -0.75600
C113        C  0.00556910  0.86525144  0.76750513     0.85200
N114        N  0.03973850  0.84639868  0.76355360    -0.77300
C115        C  0.00460770  0.68223417  0.61766823     0.82700
N116        N  0.03879472  0.68296718  0.63715385    -0.75600
C117        C  0.07284836  0.68199774  0.61744184     0.85100
N118        N  0.07263561  0.68062487  0.57814330    -0.75600
C119        C  0.03851070  0.67992496  0.55858941     0.85200
N120        N  0.00454791  0.68084118  0.57838589    -0.77300
C121        C  0.07034052  0.86387793  0.23274784     0.82700
N122        N  0.07060230  0.90235021  0.22523738    -0.75600
C123        C  0.03669884  0.92151939  0.22070601     0.85100
N124        N  0.00264457  0.90251148  0.22421552    -0.75600
C125        C  0.00249306  0.86409477  0.23172653     0.85200
N126        N  0.03629746  0.84468502  0.23607111    -0.77300
C127        C  0.07105296  0.68093920  0.38101025     0.82700
N128        N  0.07130882  0.68004931  0.42029627    -0.75600
C129        C  0.03746516  0.67921494  0.44027138     0.85100
N130        N  0.00324321  0.67949570  0.42089097    -0.75600
C131        C  0.00279915  0.68038156  0.38158470     0.85200
N132        N  0.03675677  0.68127069  0.36166725    -0.77300
C133        C  0.00207526  0.09531084  0.23378287     0.82700
N134        N  0.00198881  0.05693657  0.22578157    -0.75600
C135        C  0.03600102  0.03784148  0.22179564     0.85100
N136        N  0.06995231  0.05683064  0.22629387    -0.75600
C137        C  0.06989211  0.09515015  0.23430475     0.85200
N138        N  0.03599953  0.11448168  0.23810080    -0.77300
C139        C  0.07002751  0.27946186  0.38177962     0.82700
N140        N  0.07001514  0.28023548  0.42106925    -0.75600
C141        C  0.03604848  0.28027947  0.44085252     0.85100
N142        N  0.00194653  0.27932373  0.42126888    -0.75600
C143        C  0.00173998  0.27854303  0.38194916     0.85200
N144        N  0.03584383  0.27844048  0.36222989    -0.77300
C145        C  0.30632842  0.51359752  0.38401525     0.82700
N146        N  0.30276532  0.47969774  0.36467588    -0.75600
C147        C  0.30560140  0.44581863  0.38415929     0.85100
N148        N  0.31179051  0.44576308  0.42281744    -0.75600
C149        C  0.31550452  0.47974882  0.44193457     0.85200
N150        N  0.31249487  0.51370864  0.42267133    -0.77300
C151        C  0.15443168  0.44494962  0.20166413     0.82700
N152        N  0.11512697  0.44486299  0.20051829    -0.75600
C153        C  0.09530795  0.47881252  0.19954398     0.85100
N154        N  0.11485737  0.51293731  0.19993141    -0.75600
C155        C  0.15416996  0.51318081  0.20105430     0.85200
N156        N  0.17391660  0.47914459  0.20208987    -0.77300
O157        O  0.24784151  0.74365080  0.13033539    -0.84000
O158        O  0.20442419  0.69597238  0.34012995    -0.84200
O159        O  0.19516277  0.64662791  0.21555287    -0.85900
O160        O  0.16775118  0.76797980  0.23458074    -0.84600
O161        O  0.20112031  0.82140990  0.25624126    -0.84200
O162        O  0.25112234  0.61071036  0.21713726    -0.85600
O163        O  0.16852249  0.69792709  0.28417614    -0.84100
O164        O  0.19439805  0.72189240  0.16363065    -0.83700
Zr165      Zr  0.21222731  0.71376194  0.23118099     2.84300
O166        O  0.23244045  0.74984383  0.28498981    -1.05600
O167        O  0.26541715  0.69343754  0.19453654    -1.06400
C168        C  0.21211065  0.73340791  0.13287761     1.09100
C169        C  0.17229353  0.69358681  0.32105710     1.09000
C170        C  0.21419584  0.61450914  0.21282750     1.12000
C171        C  0.17030082  0.80381061  0.24459585     1.09800
H172        H  0.23621996  0.65267965  0.27950839     0.35300
O173        O  0.25089256  0.67461318  0.27031243    -1.26600
H174        H  0.23207667  0.78383325  0.19469387     0.35000
O175        O  0.24817688  0.76760269  0.21076475    -1.28300
O176        O  0.32671660  0.71317023  0.36713453    -0.84000
O177        O  0.36898535  0.76299008  0.15743606    -0.85500
O178        O  0.30325299  0.61056971  0.28807019    -0.84100
O179        O  0.25318934  0.81971486  0.33209093    -0.84200
O180        O  0.27302007  0.84796097  0.21108766    -0.83900
O181        O  0.31902428  0.63792237  0.16613635    -0.83700
O182        O  0.40515858  0.68942237  0.26324416    -0.84100
O183        O  0.37809371  0.81131892  0.28145634    -0.83500
O184        O  0.37152391  0.63596431  0.24201610    -0.84600
O185        O  0.32189408  0.84690430  0.28076089    -0.83700
O186        O  0.28229359  0.64383554  0.34184297    -0.84100
O187        O  0.31780812  0.69418763  0.13071401    -0.83900
O188        O  0.29430128  0.81477884  0.15737534    -0.83500
O189        O  0.25535754  0.76359469  0.36768784    -0.83900
O190        O  0.38024798  0.73421244  0.33352329    -0.84200
O191        O  0.40488912  0.76118339  0.21336083    -0.85500
Zr192      Zr  0.27183528  0.71095752  0.32351593     2.83100
Zr193      Zr  0.30192921  0.74708271  0.17465899     2.83500
Zr194      Zr  0.30422880  0.65442067  0.23345138     2.84100
Zr195      Zr  0.26873198  0.80324936  0.26478001     2.83400
Zr196      Zr  0.36138749  0.74402956  0.26640053     2.84200
O197        O  0.32225543  0.78326926  0.22809356    -1.06100
O198        O  0.32504543  0.69060097  0.28681880    -1.05600
C199        C  0.36268392  0.72256079  0.36433434     1.09000
C200        C  0.40108842  0.76581431  0.17648498     1.11700
C201        C  0.29426735  0.61324483  0.32412602     1.09200
C202        C  0.25073764  0.80050012  0.36411352     1.09600
C203        C  0.28325089  0.84554703  0.17535107     1.09200
C204        C  0.32184187  0.65722750  0.13422989     1.08700
C205        C  0.40236717  0.65358440  0.25343207     1.09100
C206        C  0.35888881  0.84329582  0.28452896     1.08600
H207        H  0.36271876  0.69851388  0.19796178     0.35300
O208        O  0.34088998  0.70758140  0.21288578    -1.27200
H209        H  0.31758644  0.77918295  0.32519698     0.35300
O210        O  0.30833925  0.76451872  0.30327743    -1.28600
C211        C  0.42088491  0.24526413  0.46694592     0.82700
N212        N  0.40164397  0.24207382  0.50095629    -0.75600
C213        C  0.42099497  0.24671011  0.53473530     0.85100
N214        N  0.45937129  0.25439936  0.53459531    -0.75600
C215        C  0.47840634  0.25777423  0.50056455     0.85200
N216        N  0.45931584  0.25295188  0.46667996    -0.77300
C217        C  0.24013966  0.09772775  0.46711288     0.82700
N218        N  0.24055892  0.11688784  0.50147993    -0.75600
C219        C  0.23961118  0.09683051  0.53531979     0.85100
N220        N  0.23854411  0.05750891  0.53470590    -0.75600
C221        C  0.23817279  0.03827900  0.50038742     0.85200
N222        N  0.23906267  0.05843015  0.46664857    -0.77300
O223        O  0.27244913  0.11099839  0.79009289    -0.84000
O224        O  0.31986651  0.32091096  0.83300313    -0.84200
O225        O  0.36940509  0.19594088  0.84196805    -0.85900
O226        O  0.24786797  0.21593833  0.86984394    -0.84600
O227        O  0.19437771  0.23744107  0.83644756    -0.84200
O228        O  0.40509202  0.19746955  0.78586768    -0.85600
O229        O  0.31838521  0.26492572  0.86887046    -0.84100
O230        O  0.29384545  0.14451199  0.84353559    -0.83700
Zr231      Zr  0.30213961  0.21194231  0.82537978     2.84300
O232        O  0.26589080  0.26564253  0.80512449    -1.05600
O233        O  0.32247529  0.17538462  0.77215350    -1.06400
C234        C  0.28252154  0.11366491  0.82585728     1.09100
C235        C  0.32257106  0.30181656  0.86506200     1.09000
C236        C  0.40142506  0.19305282  0.82275617     1.12000
C237        C  0.21204002  0.22602805  0.86729087     1.09800
H238        H  0.36312296  0.26016115  0.80128172     0.35300
O239        O  0.34117824  0.25100636  0.78659478    -1.26600
H240        H  0.23212544  0.17548243  0.80576239     0.35000
O241        O  0.24827127  0.19150916  0.78953912    -1.28300
O242        O  0.30269128  0.34786730  0.71102177    -0.84000
O243        O  0.25322797  0.13788040  0.66892759    -0.85500
O244        O  0.40539731  0.26880753  0.73516959    -0.84100
O245        O  0.19601034  0.31279685  0.78426074    -0.84200
O246        O  0.16795823  0.19135773  0.76580704    -0.83900
O247        O  0.37794026  0.14697092  0.71813144    -0.83700
O248        O  0.32613042  0.24498553  0.63240091    -0.84100
O249        O  0.20438956  0.26145901  0.65938750    -0.83500
O250        O  0.37979282  0.22404569  0.66585491    -0.84600
O251        O  0.16864977  0.26048243  0.71545977    -0.83700
O252        O  0.37197045  0.32252926  0.75601855    -0.84100
O253        O  0.32186112  0.11127183  0.72011255    -0.83900
O254        O  0.20113116  0.13765342  0.74444252    -0.83500
O255        O  0.25224223  0.34826433  0.78238678    -0.83900
O256        O  0.28137020  0.31426640  0.65760130    -0.84200
O257        O  0.25537771  0.19368417  0.63283095    -0.85500
Zr258      Zr  0.30476138  0.30416914  0.76575507     2.83100
Zr259      Zr  0.26878455  0.15522950  0.73592215     2.83500
Zr260      Zr  0.36136313  0.21429536  0.73312215     2.84100
Zr261      Zr  0.21243697  0.24539125  0.76884630     2.83400
Zr262      Zr  0.27166667  0.24703439  0.67631474     2.84200
O263        O  0.23247897  0.20859643  0.71543534    -1.06100
O264        O  0.32512290  0.26764561  0.71247339    -1.05600
C265        C  0.29318902  0.34506265  0.67510491     1.09000
C266        C  0.25083315  0.15679284  0.63673784     1.11700
C267        C  0.40270185  0.30481267  0.74441934     1.09200
C268        C  0.21533616  0.34476030  0.78687859     1.09600
C269        C  0.17042541  0.15550267  0.75595328     1.09200
C270        C  0.35879376  0.11491488  0.71568785     1.08700
C271        C  0.36210855  0.23571430  0.63511844     1.09100
C272        C  0.17232642  0.26414538  0.67846088     1.08600
H273        H  0.31733830  0.17870068  0.67492787     0.35300
O274        O  0.30815763  0.19353781  0.69676408    -1.27200
H275        H  0.23642084  0.30587782  0.72001916     0.35300
O276        O  0.25111033  0.28397586  0.72928042    -1.28600
C277        C  0.42185431  0.71321917  0.46487978     0.82700
N278        N  0.46040148  0.70625118  0.46525032    -0.75600
C279        C  0.47929293  0.70338420  0.49943679     0.85100
N280        N  0.45994875  0.70796412  0.53314064    -0.75600
C281        C  0.42144804  0.71497108  0.53267261     0.85200
N282        N  0.40226201  0.71765089  0.49857298    -0.77300
C283        C  0.24050598  0.86108512  0.53361819     0.82700
N284        N  0.24061162  0.84127336  0.49960318    -0.75600
C285        C  0.23924276  0.86071178  0.46540192     0.85100
N286        N  0.23810135  0.90003895  0.46531485    -0.75600
C287        C  0.23804375  0.91989164  0.49927448     0.85200
N288        N  0.23935030  0.90036964  0.53335456    -0.77300
C289        C  0.30227760  0.51323301  0.61601118     0.82700
N290        N  0.30928799  0.51350971  0.57749332    -0.75600
C291        C  0.31344784  0.47964842  0.55825638     0.85100
N292        N  0.31018668  0.44556897  0.57725937    -0.75600
C293        C  0.30318399  0.44540692  0.61577290     0.85200
N294        N  0.29918956  0.47920898  0.63526181    -0.77300
C295        C  0.15619763  0.44653171  0.79841503     0.82700
N296        N  0.17582314  0.48064052  0.79719105    -0.75600
C297        C  0.15617273  0.51476291  0.79738533     0.85100
N298        N  0.11686573  0.51467434  0.79848975    -0.75600
C299        C  0.09722177  0.48063385  0.79964814     0.85200
N300        N  0.11691214  0.44662171  0.79950703    -0.77300
O301        O  0.24910687  0.74574157  0.86810924    -0.84000
O302        O  0.20621246  0.69678092  0.65855501    -0.84200
O303        O  0.17072204  0.77064964  0.76561202    -0.85900
O304        O  0.19707159  0.64817311  0.78206128    -0.84600
O305        O  0.25304863  0.61224153  0.78076385    -0.84200
O306        O  0.20452660  0.82406302  0.74461105    -0.85600
O307        O  0.17023534  0.69920198  0.71441317    -0.84100
O308        O  0.19546103  0.72498087  0.83449367    -0.83700
Zr309      Zr  0.21408103  0.71548256  0.76739700     2.84300
O310        O  0.25279578  0.67596607  0.72883099    -1.05600
O311        O  0.25078230  0.76857893  0.78802296    -1.06400
C312        C  0.21309657  0.73651680  0.86527590     1.09100
C313        C  0.17405538  0.69447029  0.67755382     1.09000
C314        C  0.17367397  0.80665276  0.75639416     1.12000
C315        C  0.21609749  0.61604629  0.78470575     1.09800
H316        H  0.21280654  0.76121884  0.69919605     0.35300
O317        O  0.23464283  0.75190135  0.71394837    -1.26600
H318        H  0.25787365  0.67963781  0.82587595     0.35000
O319        O  0.26711513  0.69438149  0.80401056    -1.28300
O320        O  0.32710375  0.71581711  0.63091384    -0.84000
O321        O  0.37133590  0.76211010  0.84130164    -0.85500
O322        O  0.25666109  0.82130709  0.66724749    -0.84100
O323        O  0.30293924  0.61109458  0.71118986    -0.84200
O324        O  0.32222422  0.63851383  0.83204833    -0.83900
O325        O  0.27446524  0.84864009  0.78928554    -0.83700
O326        O  0.38052995  0.81224843  0.71600741    -0.84100
O327        O  0.40782397  0.69119745  0.73632329    -0.83500
O328        O  0.32459364  0.84820122  0.71760115    -0.84600
O329        O  0.37418287  0.63786849  0.75781899    -0.83700
O330        O  0.25770737  0.76508253  0.63172582    -0.84100
O331        O  0.29507548  0.81490994  0.84290862    -0.83900
O332        O  0.32061469  0.69444013  0.86799092    -0.83500
O333        O  0.28140287  0.64443516  0.65771878    -0.83900
O334        O  0.38092178  0.73682738  0.66409563    -0.84200
O335        O  0.40703877  0.76077246  0.78520175    -0.85500
Zr336      Zr  0.27338543  0.71213588  0.67556359     2.83100
Zr337      Zr  0.30397041  0.74762769  0.82443760     2.83500
Zr338      Zr  0.27154225  0.80481418  0.73466659     2.84100
Zr339      Zr  0.30643542  0.65568476  0.76511619     2.83400
Zr340      Zr  0.36338281  0.74517256  0.73188042     2.84200
O341        O  0.34295021  0.70888134  0.78545141    -1.06100
O342        O  0.31005400  0.76563412  0.69559959    -1.05600
C343        C  0.36293220  0.72570382  0.63330843     1.09000
C344        C  0.40338630  0.76474360  0.82216486     1.11700
C345        C  0.25383322  0.80204756  0.63527696     1.09200
C346        C  0.29277974  0.61360034  0.67543434     1.09600
C347        C  0.32507569  0.65753069  0.86412964     1.09200
C348        C  0.28383754  0.84579257  0.82523511     1.08700
C349        C  0.36147453  0.84434240  0.71307908     1.09100
C350        C  0.40516604  0.65554129  0.74680696     1.08600
H351        H  0.33980028  0.80596988  0.78043641     0.35300
O352        O  0.32491264  0.78415684  0.77128839    -1.27200
H353        H  0.34339962  0.67520621  0.69522532     0.35300
O354        O  0.32729228  0.69141730  0.71131523    -1.28600
C355        C  0.76710507  0.44558896  0.38422975     0.82700
N356        N  0.76211185  0.44593310  0.42303049    -0.75600
C357        C  0.76061565  0.48009265  0.44207735     0.85100
N358        N  0.76464885  0.51381907  0.42261158    -0.75600
C359        C  0.76967764  0.51330584  0.38380148     0.85200
N360        N  0.77101455  0.47922272  0.36450482    -0.77300
C361        C  0.91829275  0.51354331  0.20244766     0.82700
N362        N  0.95758652  0.51312550  0.20120693    -0.75600
C363        C  0.97695584  0.47893335  0.19985796     0.85100
N364        N  0.95696226  0.44506965  0.19996240    -0.75600
C365        C  0.91765405  0.44535007  0.20119634     0.85200
N366        N  0.89835744  0.47961876  0.20259967    -0.77300
C367        C  0.57040951  0.59476105  0.26149557     0.82700
N368        N  0.53640319  0.61382046  0.25748744    -0.75600
C369        C  0.50265311  0.59453166  0.26238487     0.85100
N370        N  0.50278936  0.55644119  0.27131020    -0.75600
C371        C  0.53683970  0.53760857  0.27551968     0.85200
N372        N  0.57072924  0.55661042  0.27041898    -0.77300
C373        C  0.57105610  0.77957437  0.11828252     0.82700
N374        N  0.53665942  0.77856742  0.13742499    -0.75600
C375        C  0.50279387  0.77969642  0.11735659     0.85100
N376        N  0.50344484  0.78148427  0.07807813    -0.75600
C377        C  0.53777500  0.78244931  0.05889859     0.85200
N378        N  0.57151385  0.78136289  0.07903285    -0.77300
O379        O  0.80183253  0.84812287  0.21111762    -0.84000
O380        O  0.75314281  0.63886229  0.16688302    -0.84200
O381        O  0.82640915  0.74580794  0.13206228    -0.85900
O382        O  0.70415950  0.76285255  0.15906611    -0.84600
O383        O  0.66843644  0.76128405  0.21513541    -0.84200
O384        O  0.87990334  0.72437042  0.16549932    -0.85600
O385        O  0.75470733  0.69513773  0.13149729    -0.84100
O386        O  0.78103501  0.81479943  0.15732377    -0.83700
Zr387      Zr  0.77151039  0.74758373  0.17560283     2.84300
O388        O  0.73231986  0.70862286  0.21415649    -1.05600
O389        O  0.82482948  0.76784145  0.21213295    -1.06400
C390        C  0.79254231  0.84549991  0.17513370     1.09100
C391        C  0.75028521  0.65822462  0.13498314     1.09000
C392        C  0.86235496  0.73635124  0.13482929     1.12000
C393        C  0.67212635  0.76560630  0.17824169     1.09800
H394        H  0.81739826  0.67930455  0.17362383     0.35300
O395        O  0.80817242  0.69394657  0.19557382    -1.26600
H396        H  0.73595933  0.80580481  0.21982683     0.35000
O397        O  0.75072005  0.78386279  0.22887917    -1.31500
O398        O  0.77152646  0.61061405  0.28813025    -0.84000
O399        O  0.81916909  0.82058983  0.33277586    -0.85500
O400        O  0.87796011  0.64708324  0.21780406    -0.84100
O401        O  0.66763131  0.69060176  0.26314436    -0.84200
O402        O  0.69518889  0.81171874  0.28422597    -0.83900
O403        O  0.90497856  0.76903731  0.23451468    -0.83700
O404        O  0.86899598  0.69525996  0.34132133    -0.84100
O405        O  0.74785911  0.71479049  0.36882532    -0.83500
O406        O  0.90490099  0.69760727  0.28541031    -0.84600
O407        O  0.69422837  0.73605674  0.33550184    -0.83700
O408        O  0.82184988  0.61139502  0.21883072    -0.84100
O409        O  0.87143673  0.82266811  0.25542529    -0.83900
O410        O  0.75118290  0.84757148  0.28259773    -0.83500
O411        O  0.70114651  0.63728185  0.24141411    -0.83900
O412        O  0.79303780  0.64363620  0.34185466    -0.84200
O413        O  0.81753794  0.76442868  0.36835646    -0.85500
Zr414      Zr  0.76873169  0.65522678  0.23420646     2.83100
Zr415      Zr  0.80422333  0.80403852  0.26551785     2.83500
Zr416      Zr  0.86117893  0.71441342  0.23252762     2.84100
Zr417      Zr  0.71211062  0.74468996  0.26796609     2.83400
Zr418      Zr  0.80187746  0.71128109  0.32440191     2.84200
O419        O  0.76545036  0.76492663  0.30441427    -1.06100
O420        O  0.82223564  0.67508262  0.27094386    -1.05600
C421        C  0.78137622  0.61300273  0.32398224     1.09000
C422        C  0.82168168  0.80140462  0.36478144     1.11700
C423        C  0.85882766  0.61504296  0.21508133     1.09200
C424        C  0.67023825  0.65492498  0.25261041     1.09600
C425        C  0.71428230  0.84378426  0.28715375     1.09200
C426        C  0.90219600  0.80504730  0.24366871     1.08700
C427        C  0.90111755  0.69277094  0.32225055     1.09100
C428        C  0.71203634  0.72472961  0.36628842     1.08600
H429        H  0.86274025  0.75998138  0.30089144     0.35300
O430        O  0.84084983  0.75085086  0.28610457    -1.27200
H431        H  0.73185821  0.67464024  0.30418839     0.35300
O432        O  0.74809410  0.69083963  0.28822742    -1.28600
C433        C  0.65342421  0.71325723  0.53444379     0.82700
N434        N  0.67265641  0.71734950  0.50053548    -0.75600
C435        C  0.65312435  0.71452142  0.46667569     0.85100
N436        N  0.61458508  0.70770362  0.46663622    -0.75600
C437        C  0.59557478  0.70344549  0.50058176     0.85200
N438        N  0.61484059  0.70646683  0.53455414    -0.77300
C439        C  0.83613870  0.86290297  0.53374359     0.82700
N440        N  0.83721133  0.90218559  0.53331706    -0.75600
C441        C  0.83716069  0.92160406  0.49915267     0.85100
N442        N  0.83581958  0.90163675  0.46527215    -0.75600
C443        C  0.83472868  0.86229800  0.46554555     0.85200
N444        N  0.83474480  0.84298686  0.49983188    -0.77300
C445        C  0.57326884  0.59559561  0.73812609     0.82700
N446        N  0.53955535  0.61514518  0.74244222    -0.75600
C447        C  0.50548318  0.59598816  0.73950359     0.85100
N448        N  0.50504162  0.55753916  0.73221576    -0.75600
C449        C  0.53879691  0.53822288  0.72774928     0.85200
N450        N  0.57297832  0.55710347  0.73087151    -0.77300
C451        C  0.50472198  0.77879332  0.88178292     0.82700
N452        N  0.53879717  0.77849380  0.86208188    -0.75600
C453        C  0.57295003  0.78032050  0.88157431     0.85100
N454        N  0.57294943  0.78210653  0.92085702    -0.75600
C455        C  0.53893731  0.78237518  0.94061091     0.85200
N456        N  0.50488471  0.78060064  0.92104078    -0.77300
C457        C  0.77521615  0.44753134  0.61617699     0.82700
N458        N  0.77793336  0.48161775  0.63536008    -0.75600
C459        C  0.77390753  0.51530384  0.61571145     0.85100
N460        N  0.76721181  0.51498706  0.57717075    -0.75600
C461        C  0.76432778  0.48084253  0.55827265     0.85200
N462        N  0.76850880  0.44707512  0.57762270    -0.77300
C463        C  0.92036604  0.51546497  0.79870874     0.82700
N464        N  0.95964891  0.51497011  0.79963473    -0.75600
C465        C  0.97896599  0.48074647  0.80003392     0.85100
N466        N  0.95893958  0.44690698  0.79927803    -0.75600
C467        C  0.91961964  0.44725306  0.79833841     0.85200
N468        N  0.90036736  0.48157966  0.79788824    -0.77300
O469        O  0.82711330  0.74498239  0.86885266    -0.84000
O470        O  0.87151746  0.69859558  0.65857881    -0.84200
O471        O  0.88044251  0.64910645  0.78355030    -0.85900
O472        O  0.90792417  0.77019906  0.76482624    -0.84600
O473        O  0.87460650  0.82382241  0.74352870    -0.84200
O474        O  0.82443733  0.61329255  0.78176663    -0.85600
O475        O  0.90719818  0.70013158  0.71467736    -0.84100
O476        O  0.88079039  0.72362621  0.83564568    -0.83700
Zr477      Zr  0.86345880  0.71618013  0.76781709     2.84300
O478        O  0.84339634  0.75265019  0.71421254    -1.05600
O479        O  0.81008224  0.69585048  0.80411980    -1.06400
C480        C  0.86283161  0.73468323  0.86644830     1.09100
C481        C  0.90353865  0.69587885  0.67774390     1.09000
C482        C  0.86131247  0.61706323  0.78629880     1.12000
C483        C  0.90539652  0.80605865  0.75504134     1.09800
H484        H  0.83980666  0.65531225  0.71925098     0.35300
O485        O  0.82502659  0.67720067  0.72841573    -1.26600
H486        H  0.84344127  0.78600387  0.80471857     0.35000
O487        O  0.82737702  0.76991937  0.78846360    -1.28300
O488        O  0.74970329  0.71534707  0.63136587    -0.84000
O489        O  0.70621009  0.76514811  0.84076472    -0.85500
O490        O  0.77356081  0.61312881  0.71037533    -0.84100
O491        O  0.82261281  0.82278977  0.66752024    -0.84200
O492        O  0.80299959  0.85043864  0.78879140    -0.83900
O493        O  0.75667243  0.63998777  0.83219655    -0.83700
O494        O  0.67063032  0.69138302  0.73506846    -0.84100
O495        O  0.69753596  0.81345560  0.71705117    -0.83500
O496        O  0.70441230  0.63800344  0.75620011    -0.84600
O497        O  0.75347193  0.84942940  0.71894153    -0.83700
O498        O  0.79469173  0.64658255  0.65680246    -0.84100
O499        O  0.75743640  0.69610803  0.86786617    -0.83900
O500        O  0.78167512  0.81695327  0.84227067    -0.83500
O501        O  0.82077421  0.76677297  0.63169322    -0.83900
O502        O  0.69593539  0.73594321  0.66486967    -0.84200
O503        O  0.67050792  0.76316449  0.78470148    -0.85500
Zr504      Zr  0.80428952  0.71378445  0.67532022     2.83100
Zr505      Zr  0.77342005  0.74932875  0.82420170     2.83500
Zr506      Zr  0.77153473  0.65687618  0.76498123     2.84100
Zr507      Zr  0.80691393  0.80593105  0.73467752     2.83400
Zr508      Zr  0.71439170  0.74621226  0.73201359     2.84200
O509        O  0.75316733  0.78553334  0.77076990    -1.06100
O510        O  0.75091520  0.69298138  0.71150169    -1.05600
C511        C  0.71362279  0.72428253  0.63414062     1.09000
C512        C  0.67418252  0.76782215  0.82157894     1.11700
C513        C  0.78299260  0.61585487  0.67445333     1.09200
C514        C  0.82522102  0.80366784  0.63544585     1.09600
C515        C  0.79295121  0.84785037  0.82459466     1.09200
C516        C  0.75365535  0.65911206  0.86420375     1.08700
C517        C  0.67349073  0.65550944  0.74483615     1.09100
C518        C  0.71654230  0.84559998  0.71465353     1.08600
H519        H  0.71284921  0.70066790  0.80037673     0.35300
O520        O  0.73472159  0.70985348  0.78560474    -1.27200
H521        H  0.75839768  0.78190136  0.67377087     0.35300
O522        O  0.76761770  0.76720604  0.69567801    -1.28600
C523        C  0.50213617  0.36402658  0.26806579     0.82700
N524        N  0.53604783  0.34471642  0.26448581    -0.75600
C525        C  0.56991543  0.36402912  0.26836018     0.85100
N526        N  0.56999020  0.40248094  0.27561761    -0.75600
C527        C  0.53603698  0.42160177  0.27938979     0.85200
N528        N  0.50202942  0.40253744  0.27532084    -0.77300
C529        C  0.57016883  0.17931984  0.11839623     0.82700
N530        N  0.57013923  0.17796888  0.07912547    -0.75600
C531        C  0.53615403  0.17791068  0.05937319     0.85100
N532        N  0.50207459  0.17945415  0.07896429    -0.75600
C533        C  0.50193252  0.18081047  0.11826906     0.85200
N534        N  0.53603450  0.18091525  0.13794199    -0.77300
O535        O  0.82495154  0.21489487  0.13139002    -0.84000
O536        O  0.86799950  0.26322258  0.34133911    -0.84200
O537        O  0.87647256  0.31249416  0.21611323    -0.85900
O538        O  0.90465344  0.19126239  0.23530376    -0.84600
O539        O  0.87155181  0.13769230  0.25702348    -0.84200
O540        O  0.82031520  0.34810246  0.21791400    -0.85600
O541        O  0.90383510  0.26133443  0.28536089    -0.84100
O542        O  0.87828056  0.23672077  0.16483411    -0.83700
Zr543      Zr  0.86007499  0.24539291  0.23226730     2.84300
O544        O  0.84015374  0.20914903  0.28604883    -1.05600
O545        O  0.80672525  0.26541898  0.19563457    -1.06400
C546        C  0.86076536  0.22494672  0.13404991     1.09100
C547        C  0.90013087  0.26565628  0.32227375     1.09000
C548        C  0.85722017  0.34446314  0.21333626     1.12000
C549        C  0.90221714  0.15539843  0.24521050     1.09800
H550        H  0.83577383  0.30648717  0.28048082     0.35300
O551        O  0.82122429  0.28443979  0.27134372    -1.26600
H552        H  0.84045292  0.17536564  0.19591281     0.35000
O553        O  0.82423825  0.19148861  0.21197067    -1.28300
O554        O  0.74607786  0.24508129  0.36839012    -0.84000
O555        O  0.70350960  0.19514018  0.15887674    -0.85500
O556        O  0.76837849  0.34802021  0.28904272    -0.84100
O557        O  0.82005011  0.13950572  0.33331054    -0.84200
O558        O  0.80079788  0.11098623  0.21193578    -0.83900
O559        O  0.75273025  0.32086568  0.16726687    -0.83700
O560        O  0.66719086  0.26865209  0.26573273    -0.84100
O561        O  0.69479798  0.14670110  0.28238770    -0.83500
O562        O  0.70033205  0.32230920  0.24427350    -0.84600
O563        O  0.75114413  0.11138031  0.28149988    -0.83700
O564        O  0.78959548  0.31496368  0.34283233    -0.84100
O565        O  0.75475665  0.26477176  0.13161032    -0.83900
O566        O  0.77940197  0.14402568  0.15817277    -0.83500
O567        O  0.81785039  0.19572375  0.36877321    -0.83900
O568        O  0.69262488  0.22347615  0.33499868    -0.84200
O569        O  0.66767674  0.19687387  0.21487744    -0.85500
Zr570      Zr  0.80067379  0.24793409  0.32456610     2.83100
Zr571      Zr  0.77054718  0.21164048  0.17560743     2.83500
Zr572      Zr  0.76758472  0.30412533  0.23454056     2.84100
Zr573      Zr  0.80402487  0.15555461  0.26590489     2.83400
Zr574      Zr  0.71120315  0.21417104  0.26771434     2.84200
O575        O  0.75047615  0.17530238  0.22914718    -1.06100
O576        O  0.74725421  0.26781975  0.28797209    -1.05600
C577        C  0.71022920  0.23525876  0.36574104     1.09000
C578        C  0.67147317  0.19219035  0.17802265     1.11700
C579        C  0.77739433  0.34543472  0.32508024     1.09200
C580        C  0.82269828  0.15886550  0.36526098     1.09600
C581        C  0.79094857  0.11337702  0.17607794     1.09200
C582        C  0.75042486  0.30173156  0.13520394     1.08700
C583        C  0.66975921  0.30459938  0.25627543     1.09100
C584        C  0.71412233  0.11477404  0.28523069     1.08600
H585        H  0.70926203  0.25975718  0.19924314     0.35300
O586        O  0.73121537  0.25076135  0.21402556    -1.27200
H587        H  0.75532923  0.17931035  0.32649193     0.35300
O588        O  0.76439690  0.19405549  0.30455693    -1.28600
C589        C  0.50281789  0.36444682  0.73479058     0.82700
N590        N  0.53655814  0.34489845  0.73882124    -0.75600
C591        C  0.57058410  0.36415609  0.73612797     0.85100
N592        N  0.57096391  0.40272326  0.72954246    -0.75600
C593        C  0.53718152  0.42204596  0.72537075     0.85200
N594        N  0.50303649  0.40306167  0.72823739    -0.77300
C595        C  0.50309159  0.18099187  0.88204364     0.82700
N596        N  0.53725651  0.18290831  0.86255066    -0.75600
C597        C  0.57134143  0.18264125  0.88228191     0.85100
N598        N  0.57113888  0.18077636  0.92156201    -0.75600
C599        C  0.53704147  0.17891776  0.94108255     0.85200
N600        N  0.50308757  0.17913366  0.92128937    -0.77300
C601        C  0.65243461  0.24516425  0.53428040     0.82700
N602        N  0.61401676  0.25295612  0.53471756    -0.75600
C603        C  0.59466466  0.25721199  0.50090111     0.85100
N604        N  0.61342490  0.25321455  0.46678596    -0.75600
C605        C  0.65177612  0.24541535  0.46646914     0.85200
N606        N  0.67139556  0.24134983  0.50017013    -0.77300
C607        C  0.83611236  0.09935654  0.46666461     0.82700
N608        N  0.83521372  0.11863313  0.50098814    -0.75600
C609        C  0.83578425  0.09866281  0.53491949     0.85100
N610        N  0.83690582  0.05933309  0.53440131    -0.75600
C611        C  0.83774526  0.04001112  0.50013747     0.85200
N612        N  0.83723291  0.06006797  0.46634822    -0.77300
O613        O  0.82673666  0.21668253  0.86914218    -0.84000
O614        O  0.87001000  0.26466299  0.65937300    -0.84200
O615        O  0.90589670  0.19227812  0.76741104    -0.85900
O616        O  0.87836178  0.31433624  0.78314012    -0.84600
O617        O  0.82212221  0.34981436  0.78159825    -0.84200
O618        O  0.87263916  0.13849135  0.74645872    -0.85600
O619        O  0.90571491  0.26345341  0.71547758    -0.84100
O620        O  0.88036868  0.23777788  0.83573015    -0.83700
Zr621      Zr  0.86197769  0.24690977  0.76840687     2.84300
O622        O  0.82298511  0.28554884  0.72928443    -1.05600
O623        O  0.82577466  0.19353107  0.78904344    -1.06400
C624        C  0.86267318  0.22616567  0.86646946     1.09100
C625        C  0.90201083  0.26765014  0.67854851     1.09000
C626        C  0.90321170  0.15619550  0.75846195     1.12000
C627        C  0.85909219  0.34630758  0.78573305     1.09800
H628        H  0.86400613  0.20070498  0.70039397     0.35300
O629        O  0.84201264  0.20992445  0.71498175    -1.26600
H630        H  0.81767247  0.28244585  0.82667719     0.35000
O631        O  0.80867360  0.26753496  0.80481696    -1.28300
O632        O  0.74871424  0.24502900  0.63151699    -0.84000
O633        O  0.70491448  0.19898225  0.84191992    -0.85500
O634        O  0.82062800  0.13955006  0.66866830    -0.84100
O635        O  0.77344068  0.34997583  0.71142176    -0.84200
O636        O  0.75284421  0.32266500  0.83250100    -0.83900
O637        O  0.80369483  0.11324952  0.79073576    -0.83700
O638        O  0.69682023  0.14823582  0.71703934    -0.84100
O639        O  0.66852397  0.26928937  0.73619921    -0.83500
O640        O  0.75297836  0.11267045  0.71931268    -0.84600
O641        O  0.70164424  0.32318452  0.75711606    -0.83700
O642        O  0.81881012  0.19538235  0.63259687    -0.84100
O643        O  0.78243800  0.14686813  0.84416496    -0.83900
O644        O  0.75479186  0.26677692  0.86848291    -0.83500
O645        O  0.79494344  0.31641373  0.65803479    -0.83900
O646        O  0.69521421  0.22368955  0.66498249    -0.84200
O647        O  0.66936131  0.20000019  0.78573746    -0.85500
Zr648      Zr  0.80287333  0.24881035  0.67604638     2.83100
Zr649      Zr  0.77225425  0.21389801  0.82518562     2.83500
Zr650      Zr  0.80556679  0.15677083  0.73586687     2.84100
Zr651      Zr  0.76930195  0.30571485  0.76555143     2.83400
Zr652      Zr  0.71322833  0.21552325  0.73258529     2.84200
O653        O  0.73312968  0.25230001  0.78600039    -1.06100
O654        O  0.76668653  0.19517591  0.69640738    -1.05600
C655        C  0.71287718  0.23502625  0.63410979     1.09000
C656        C  0.67290259  0.19620353  0.82272656     1.11700
C657        C  0.82307226  0.15845999  0.63646556     1.09200
C658        C  0.78372540  0.34732556  0.67571245     1.09600
C659        C  0.74996942  0.30359316  0.86457164     1.09200
C660        C  0.79434262  0.11610292  0.82668414     1.08700
C661        C  0.71609859  0.11624702  0.71457265     1.09100
C662        C  0.67090620  0.30514668  0.74602149     1.08600
H663        H  0.73717910  0.15500579  0.78149637     0.35300
O664        O  0.75183800  0.17692106  0.77223512    -1.27200
H665        H  0.73282236  0.28545428  0.69563515     0.35300
O666        O  0.74897468  0.26942181  0.71185215    -1.28600
O667        O  0.24659971  0.21300367  0.13253027    -0.84000
O668        O  0.20378344  0.26424620  0.34165001    -0.84200
O669        O  0.16758731  0.19016223  0.23586155    -0.85900
O670        O  0.19519663  0.31184240  0.21767782    -0.84600
O671        O  0.25138707  0.34740294  0.21923083    -0.84200
O672        O  0.20086323  0.13662049  0.25739771    -0.85600
O673        O  0.16796940  0.26200446  0.28565489    -0.84100
O674        O  0.19303880  0.23434542  0.16590240    -0.83700
Zr675      Zr  0.21167708  0.24460739  0.23304760     2.84300
O676        O  0.25072279  0.28395412  0.27154489    -1.05600
O677        O  0.24786014  0.19104077  0.21283244    -1.06400
C678        C  0.21063874  0.22240659  0.13521776     1.09100
C679        C  0.17170417  0.26689498  0.32248212     1.09000
C680        C  0.17015351  0.15428760  0.24562591     1.12000
C681        C  0.21443672  0.34382170  0.21502068     1.09800
H682        H  0.20995973  0.19943660  0.30174007     0.35300
O683        O  0.23186249  0.20840171  0.28687417    -1.26600
H684        H  0.25566173  0.27963383  0.17434985     0.35000
O685        O  0.26482594  0.26498627  0.19631304    -1.28300
O686        O  0.32528323  0.24409219  0.36949049    -0.84000
O687        O  0.36858614  0.19661454  0.15938567    -0.85500
O688        O  0.25405986  0.13886056  0.33408181    -0.84100
O689        O  0.30222737  0.34826322  0.28881322    -0.84200
O690        O  0.32022134  0.32000493  0.16776501    -0.83900
O691        O  0.27023053  0.11096957  0.21203362    -0.83700
O692        O  0.37708469  0.14628000  0.28436420    -0.84100
O693        O  0.40517202  0.26786876  0.26577970    -0.83500
O694        O  0.32083724  0.11081109  0.28302176    -0.84600
O695        O  0.37201099  0.32129983  0.24375250    -0.83700
O696        O  0.25559926  0.19516970  0.36944547    -0.84100
O697        O  0.29178162  0.14406929  0.15838691    -0.83900
O698        O  0.31775979  0.26392013  0.13213032    -0.83500
O699        O  0.28088430  0.31538978  0.34266824    -0.83900
O700        O  0.37863376  0.22194740  0.33626906    -0.84200
O701        O  0.40444200  0.19812139  0.21536748    -0.85500
Zr702      Zr  0.27103188  0.24787501  0.32512492     2.83100
Zr703      Zr  0.30127029  0.21131669  0.17633064     2.83500
Zr704      Zr  0.26823637  0.15499241  0.26646948     2.84100
Zr705      Zr  0.30445928  0.30353052  0.23497387     2.83400
Zr706      Zr  0.36071436  0.21366315  0.26866557     2.84200
O707        O  0.34074856  0.25000608  0.21489826    -1.06100
O708        O  0.30722902  0.19396907  0.30523825    -1.05600
C709        C  0.36102550  0.23373932  0.36700765     1.09000
C710        C  0.40071101  0.19409263  0.17841480     1.11700
C711        C  0.25167702  0.15818141  0.36603736     1.09200
C712        C  0.29276152  0.34592012  0.32476625     1.09600
C713        C  0.32256718  0.30079813  0.13573521     1.09200
C714        C  0.27993419  0.11349371  0.17615639     1.08700
C715        C  0.35779490  0.11431551  0.28727111     1.09100
C716        C  0.40265851  0.30369779  0.25576611     1.08600
H717        H  0.33644211  0.15282571  0.22050448     0.35300
O718        O  0.32179213  0.17482144  0.22961543    -1.27200
H719        H  0.34108310  0.28371101  0.30489131     0.35300
O720        O  0.32482874  0.26763459  0.28883117    -1.28600
C721        C  0.83003639  0.13654303  0.60155593    -0.10800
C722        C  0.83357282  0.11907441  0.57136129    -0.12400
C723        C  0.67288561  0.24054533  0.56980427    -0.10800
C724        C  0.69064242  0.23731525  0.59946613    -0.12400
C725        C  0.60762293  0.18553416  0.86172009    -0.10800
C726        C  0.63783920  0.18929693  0.84436411    -0.12400
C727        C  0.60611953  0.34398531  0.74075298    -0.10800
C728        C  0.63607417  0.32685691  0.74389291    -0.12400
C729        C  0.68819575  0.23777927  0.40039358    -0.10800
C730        C  0.67132684  0.24096291  0.43051695    -0.12400
C731        C  0.83401823  0.12031841  0.43060409    -0.10800
C732        C  0.83027849  0.13755446  0.40034429    -0.12400
C733        C  0.53636077  0.17739177  0.01770256    -0.10800
C734        C  0.53678673  0.17770775  0.98273586    -0.12400
C735        C  0.43565510  0.18723078  0.15657836    -0.10800
C736        C  0.46572763  0.18353137  0.13896899    -0.12400
C737        C  0.63659461  0.18455412  0.15643517    -0.10800
C738        C  0.60638378  0.18098920  0.13909354    -0.12400
C739        C  0.46654762  0.34390370  0.26303890    -0.10800
C740        C  0.43706940  0.32606489  0.25901978    -0.12400
C741        C  0.60556770  0.34410258  0.26358157    -0.10800
C742        C  0.63531417  0.32676333  0.25969800    -0.12400
C743        C  0.88071334  0.38132280  0.79272902    -0.10800
C744        C  0.89847171  0.41130682  0.79624246    -0.12400
C745        C  0.88290990  0.58216175  0.79355428    -0.10800
C746        C  0.90008827  0.55186706  0.79695748    -0.12400
C747        C  0.78211168  0.38206778  0.65376593    -0.10800
C748        C  0.77945622  0.41200067  0.63649208    -0.12400
C749        C  0.77736661  0.55122845  0.63541805    -0.10800
C750        C  0.78022898  0.58129823  0.65238728    -0.12400
C751        C  0.60912051  0.77858748  0.86075862    -0.10800
C752        C  0.63923034  0.77514082  0.84319416    -0.12400
C753        C  0.53829782  0.49751775  0.72232622    -0.10800
C754        C  0.53760572  0.46292275  0.72151436    -0.12400
C755        C  0.60912816  0.61562044  0.74105200    -0.10800
C756        C  0.63894100  0.63322429  0.74303149    -0.12400
C757        C  0.83809897  0.99830294  0.49954639    -0.10800
C758        C  0.83787733  0.96331026  0.49901831    -0.12400
C759        C  0.83498050  0.84253583  0.57013899    -0.10800
C760        C  0.83207151  0.82531260  0.60046859    -0.12400
C761        C  0.67364466  0.71721971  0.57009957    -0.10800
C762        C  0.69126722  0.72075842  0.59975985    -0.12400
C763        C  0.69010813  0.72246966  0.40099829    -0.10800
C764        C  0.67300349  0.71922617  0.43096492    -0.12400
C765        C  0.82863053  0.82317665  0.39973353    -0.10800
C766        C  0.83225397  0.84113147  0.42960179    -0.12400
C767        C  0.53844188  0.78339281  0.01724148    -0.10800
C768        C  0.53891600  0.78336881  0.98227361    -0.12400
C769        C  0.63717730  0.77307275  0.15669956    -0.10800
C770        C  0.60702526  0.77700919  0.13932851    -0.12400
C771        C  0.53625139  0.46248253  0.28345724    -0.10800
C772        C  0.53682102  0.49707634  0.28220128    -0.12400
C773        C  0.63556668  0.63281372  0.25403234    -0.10800
C774        C  0.60592405  0.61503356  0.25676041    -0.12400
C775        C  0.89789343  0.54986724  0.20487153    -0.10800
C776        C  0.88053425  0.58006778  0.20835711    -0.12400
C777        C  0.87883256  0.37937618  0.20604510    -0.10800
C778        C  0.89657582  0.40936665  0.20271493    -0.12400
C779        C  0.75807183  0.48039976  0.48301258    -0.10800
C780        C  0.75926518  0.48052423  0.51757240    -0.12400
C781        C  0.77464044  0.54868649  0.36341607    -0.10800
C782        C  0.77843739  0.57837851  0.34595601    -0.12400
C783        C  0.77349284  0.37982353  0.34721780    -0.10800
C784        C  0.77011549  0.40970218  0.36441293    -0.12400
C785        C  0.46993634  0.61632975  0.74356313    -0.10800
C786        C  0.43997979  0.63364552  0.74575970    -0.12400
C787        C  0.46850220  0.77575803  0.86122383    -0.10800
C788        C  0.43835385  0.77179036  0.84384316    -0.12400
C789        C  0.05557633  0.48054414  0.80027724    -0.10800
C790        C  0.02061553  0.48043422  0.80040178    -0.12400
C791        C  0.17685221  0.55096630  0.79506954    -0.10800
C792        C  0.19429748  0.58112924  0.79155701    -0.12400
C793        C  0.29782132  0.54888022  0.63619809    -0.10800
C794        C  0.29481590  0.57882302  0.65347046    -0.12400
C795        C  0.24306185  0.84064160  0.56991384    -0.10800
C796        C  0.24678730  0.82353567  0.60022865    -0.12400
C797        C  0.52012247  0.69887841  0.49995276    -0.10800
C798        C  0.55474138  0.69892642  0.50049807    -0.12400
C799        C  0.40136401  0.72009297  0.56824443    -0.10800
C800        C  0.38458157  0.72353091  0.59839069    -0.12400
C801        C  0.43720444  0.32702281  0.74145660    -0.10800
C802        C  0.46699716  0.34449108  0.73839796    -0.12400
C803        C  0.46683869  0.18256206  0.86137632    -0.10800
C804        C  0.43646501  0.18583789  0.84424712    -0.12400
C805        C  0.29610481  0.37956994  0.65283616    -0.10800
C806        C  0.29926909  0.40953028  0.63563868    -0.12400
C807        C  0.17681391  0.41026639  0.79699214    -0.10800
C808        C  0.19394521  0.37988916  0.79387035    -0.12400
C809        C  0.23750151  0.96159167  0.49924530    -0.10800
C810        C  0.23755669  0.99658095  0.49973289    -0.12400
C811        C  0.24108344  0.11720574  0.57175788    -0.10800
C812        C  0.24408088  0.13483164  0.60188195    -0.12400
C813        C  0.24207739  0.11893179  0.43121375    -0.10800
C814        C  0.24522378  0.13661609  0.40116278    -0.12400
C815        C  0.51923467  0.26266938  0.50061729    -0.10800
C816        C  0.55387856  0.26247321  0.50104886    -0.12400
C817        C  0.38423434  0.23885381  0.60058522    -0.10800
C818        C  0.40124353  0.24238540  0.57058508    -0.12400
C819        C  0.38320869  0.23624980  0.40164042    -0.10800
C820        C  0.40075462  0.23994312  0.43135917    -0.12400
C821        C  0.46687575  0.61431154  0.25820463    -0.10800
C822        C  0.43693694  0.63150346  0.25547344    -0.12400
C823        C  0.46626838  0.77726596  0.13755608    -0.10800
C824        C  0.43599361  0.77339129  0.15479524    -0.12400
C825        C  0.38493112  0.71977312  0.39888273    -0.10800
C826        C  0.40208968  0.71681476  0.42889578    -0.12400
C827        C  0.24377699  0.82212429  0.39915756    -0.10800
C828        C  0.24065229  0.83976235  0.42927171    -0.12400
C829        C  0.05362031  0.47863288  0.19904191    -0.10800
C830        C  0.01863662  0.47861888  0.19914538    -0.12400
C831        C  0.19236648  0.57960110  0.20590442    -0.10800
C832        C  0.17479725  0.54946383  0.20270834    -0.12400
C833        C  0.19284043  0.37879093  0.20780812    -0.10800
C834        C  0.17529323  0.40886308  0.20405142    -0.12400
C835        C  0.31908084  0.47981651  0.48285986    -0.10800
C836        C  0.31840920  0.47982233  0.51747355    -0.12400
C837        C  0.29814962  0.57890050  0.34640732    -0.10800
C838        C  0.30205017  0.54923524  0.36390219    -0.12400
C839        C  0.29643357  0.38046323  0.34680716    -0.10800
C840        C  0.30063872  0.41017621  0.36417407    -0.12400
C841        C  0.13667869  0.27439767  0.34396401    -0.10800
C842        C  0.10630365  0.27785220  0.36109433    -0.12400
C843        C  0.96542122  0.27625316  0.36132824    -0.10800
C844        C  0.93516398  0.27267318  0.34397435    -0.12400
C845        C  0.10561815  0.11500943  0.23930841    -0.10800
C846        C  0.13552660  0.13220440  0.24287671    -0.12400
C847        C  0.93678074  0.13316769  0.24218531    -0.10800
C848        C  0.96640698  0.11545790  0.23848794    -0.12400
C849        C  0.93607964  0.68548580  0.34389911    -0.10800
C850        C  0.96637113  0.68208669  0.36118165    -0.12400
C851        C  0.10711718  0.68308494  0.36008193    -0.10800
C852        C  0.13731823  0.68659818  0.34270848    -0.12400
C853        C  0.03616901  0.99705358  0.21637399    -0.10800
C854        C  0.03667062  0.96239840  0.21602757    -0.12400
C855        C  0.96661768  0.84437246  0.23634760    -0.10800
C856        C  0.93666439  0.82729990  0.24020944    -0.12400
C857        C  0.10596629  0.84368740  0.23799569    -0.10800
C858        C  0.13567863  0.82608862  0.24182466    -0.12400
C859        C  0.03829122  0.67912180  0.51691586    -0.10800
C860        C  0.03789625  0.67891418  0.48194444    -0.12400
C861        C  0.13916535  0.68742886  0.65574057    -0.10800
C862        C  0.10909517  0.68399613  0.63810286    -0.12400
C863        C  0.96849930  0.68465511  0.63850193    -0.10800
C864        C  0.93845331  0.68851935  0.65608164    -0.12400
C865        C  0.13931029  0.82916868  0.75973642    -0.10800
C866        C  0.10942632  0.84643909  0.76349579    -0.12400
C867        C  0.97003995  0.84514200  0.76188512    -0.10800
C868        C  0.94009922  0.82806126  0.75788977    -0.12400
C869        C  0.03670306  0.28010723  0.51751586    -0.10800
C870        C  0.03627972  0.28040334  0.48253969    -0.12400
C871        C  0.10746783  0.27428057  0.63876296    -0.10800
C872        C  0.13741875  0.27076969  0.65657088    -0.12400
C873        C  0.93692434  0.27463803  0.65684867    -0.10800
C874        C  0.96701047  0.27758761  0.63920833    -0.12400
C875        C  0.03742594  0.99808948  0.78707321    -0.10800
C876        C  0.03808222  0.96346129  0.78679387    -0.12400
C877        C  0.10604741  0.11620254  0.76286016    -0.10800
C878        C  0.13580276  0.13350079  0.75878116    -0.12400
C879        C  0.93749019  0.13380975  0.76241892    -0.10800
C880        C  0.96705950  0.11614042  0.76633478    -0.12400
C881        C  0.37935111  0.07924255  0.29439968    -0.10800
C882        C  0.39688791  0.04909257  0.29785582    -0.12400
C883        C  0.38052583  0.87824765  0.29180085    -0.10800
C884        C  0.39786344  0.90841713  0.29583616    -0.12400
C885        C  0.27504732  0.04913032  0.13670973    -0.10800
C886        C  0.27743088  0.07892293  0.15417352    -0.12400
C887        C  0.27897047  0.91023354  0.13636917    -0.10800
C888        C  0.28170519  0.88035859  0.15364591    -0.12400
C889        C  0.67720268  0.05107745  0.70371574    -0.10800
C890        C  0.69461756  0.08123381  0.70732426    -0.12400
C891        C  0.69466632  0.88046872  0.70766967    -0.10800
C892        C  0.67698154  0.91049430  0.70405553    -0.12400
C893        C  0.80078534  0.05165365  0.86605387    -0.10800
C894        C  0.79750790  0.08166826  0.84899415    -0.12400
C895        C  0.79827707  0.91233940  0.86429493    -0.10800
C896        C  0.79507119  0.88256956  0.84671954    -0.12400
C897        C  0.33315141  0.34007843  0.07070866    -0.10800
C898        C  0.32969681  0.32241182  0.10074936    -0.12400
C899        C  0.32973288  0.32344023  0.89992948    -0.10800
C900        C  0.33327322  0.34063205  0.93017726    -0.12400
C901        C  0.18844051  0.21923544  0.10070076    -0.10800
C902        C  0.17133685  0.21587914  0.07071707    -0.12400
C903        C  0.17204379  0.21977032  0.93151900    -0.10800
C904        C  0.18977757  0.22358028  0.90191119    -0.12400
C905        C  0.74305639  0.63685162  0.09991918    -0.10800
C906        C  0.73975954  0.61965449  0.06961662    -0.12400
C907        C  0.74256967  0.61962344  0.92905956    -0.10800
C908        C  0.74646910  0.63731625  0.89907964    -0.12400
C909        C  0.90192917  0.74252719  0.07055698    -0.10800
C910        C  0.88463576  0.73945295  0.10042521    -0.12400
C911        C  0.88444623  0.73622258  0.90136083    -0.10800
C912        C  0.90138651  0.73917894  0.93143261    -0.12400
C913        C  0.55571854  0.98117524  0.69743791    -0.10800
C914        C  0.52072349  0.98129671  0.69717431    -0.12400
C915        C  0.39837766  0.05012153  0.70418116    -0.10800
C916        C  0.38051831  0.07999320  0.70832976    -0.12400
C917        C  0.40031025  0.90950670  0.70181847    -0.10800
C918        C  0.38314939  0.87920225  0.70553048    -0.12400
C919        C  0.25847549  0.97938124  0.98340841    -0.10800
C920        C  0.25846419  0.97941776  0.01798716    -0.12400
C921        C  0.27782377  0.04915617  0.86517737    -0.10800
C922        C  0.28055324  0.07904081  0.84788264    -0.12400
C923        C  0.27831473  0.91007627  0.86488987    -0.10800
C924        C  0.28137042  0.88030009  0.84743464    -0.12400
C925        C  0.51871841  0.97939993  0.30385632    -0.10800
C926        C  0.55372374  0.97940808  0.30390417    -0.12400
C927        C  0.67515331  0.04950561  0.29603796    -0.10800
C928        C  0.69258170  0.07966329  0.29217872    -0.12400
C929        C  0.67503955  0.90880600  0.29832433    -0.10800
C930        C  0.69255535  0.87866706  0.29467367    -0.12400
C931        C  0.81992014  0.98024554  0.01813873    -0.10800
C932        C  0.81998616  0.98036430  0.98352040    -0.12400
C933        C  0.79372399  0.07871888  0.15411847    -0.10800
C934        C  0.79742923  0.04899894  0.13666702    -0.12400
C935        C  0.79544108  0.88005816  0.15307448    -0.10800
C936        C  0.79880620  0.90992883  0.13584480    -0.12400
C937        C  0.73604156  0.46329537  0.00026242    -0.10800
C938        C  0.73630387  0.49827214  0.99969034    -0.12400
C939        C  0.74353230  0.32352344  0.10021436    -0.10800
C940        C  0.74001990  0.34139878  0.07026813    -0.12400
C941        C  0.74224326  0.32518409  0.89938067    -0.10800
C942        C  0.73863410  0.34233061  0.92966951    -0.12400
C943        C  0.05376718  0.19425944  0.00028198    -0.10800
C944        C  0.01911792  0.19428268  0.00068913    -0.12400
C945        C  0.90094479  0.21839955  0.07003970    -0.10800
C946        C  0.88316953  0.22212721  0.09960478    -0.12400
C947        C  0.88479682  0.22316327  0.90100703    -0.10800
C948        C  0.90186313  0.21920424  0.93091446    -0.12400
C949        C  0.33808317  0.46165591  0.00046779    -0.10800
C950        C  0.33831223  0.49661815  0.99987558    -0.12400
C951        C  0.33309540  0.61826513  0.06922812    -0.10800
C952        C  0.32913151  0.63572506  0.09928274    -0.12400
C953        C  0.33236040  0.63563084  0.89888698    -0.10800
C954        C  0.33570989  0.61780094  0.92883141    -0.12400
C955        C  0.05460330  0.76016891  0.99939146    -0.10800
C956        C  0.02001325  0.76030187  0.99985847    -0.12400
C957        C  0.17291179  0.73873292  0.06836692    -0.10800
C958        C  0.19014803  0.73552923  0.09823216    -0.12400
C959        C  0.19077598  0.73935526  0.89968368    -0.10800
C960        C  0.17315227  0.74218129  0.92938357    -0.12400
loop_ 
_geom_bond_atom_site_label_1 
_geom_bond_atom_site_label_2 
_geom_bond_distance 
_geom_bond_site_symmetry_2 
_ccdc_geom_bond_type 
C1            N2   1.353       .  A
C1            N6   1.354       .  A
C1          C960   1.421       .  S
N2            C3   1.353       .  A
C3            N4   1.352   1_556  A
C3          C955   1.417       .  S
N4            C5   1.352       .  A
C5            N6   1.354   1_554  A
C5          C957   1.420       .  S
C7            N8   1.357       .  A
C7           N12   1.359   1_554  A
C7          C951   1.440       .  S
N8            C9   1.358   1_554  A
C9           N10   1.359       .  A
C9          C950   1.439       .  S
N10          C11   1.359       .  A
C11          N12   1.359       .  A
C11         C954   1.442       .  S
C13          N14   1.354       .  A
C13          N18   1.354       .  A
C13         C945   1.424       .  S
N14          C15   1.354       .  A
C15          N16   1.353   1_554  A
C15         C944   1.421   1_655  S
N16          C17   1.352       .  A
C17          N18   1.354   1_556  A
C17         C948   1.422       .  S
C19          N20   1.360       .  A
C19          N24   1.357       .  A
C19         C942   1.441       .  S
N20          C21   1.360   1_556  A
C21          N22   1.360       .  A
C21         C940   1.445       .  S
N22          C23   1.360       .  A
C23          N24   1.357   1_554  A
C23         C937   1.440       .  S
C25          N26   1.354       .  A
C25          N30   1.352       .  A
C25         C936   1.421       .  S
N26          C27   1.354   1_565  A
C27          N28   1.353       .  A
C27         C934   1.422       .  S
N28          C29   1.353   1_545  A
C29          N30   1.353       .  A
C29         C931   1.419       .  S
C31          N32   1.359       .  A
C31          N36   1.360   1_545  A
C31         C927   1.444       .  S
N32          C33   1.359   1_545  A
C33          N34   1.359       .  A
C33         C926   1.441       .  S
N34          C35   1.359       .  A
C35          N36   1.360       .  A
C35         C929   1.444       .  S
C37          N38   1.354   1_545  A
C37          N42   1.352       .  A
C37         C921   1.420       .  S
N38          C39   1.354       .  A
C39          N40   1.352       .  A
C39         C923   1.421       .  S
N40          C41   1.353       .  A
C41          N42   1.352   1_565  A
C41         C919   1.417       .  S
C43          N44   1.360       .  A
C43          N48   1.358       .  A
C43         C917   1.443       .  S
N44          C45   1.360   1_565  A
C45          N46   1.359       .  A
C45         C915   1.444       .  S
N46          C47   1.359   1_545  A
C47          N48   1.358       .  A
C47         C914   1.441       .  S
C49          N50   1.353       .  A
C49          N54   1.354       .  A
C49         C909   1.421       .  S
N50          C51   1.353       .  A
C51          N52   1.352   1_554  A
C51         C956   1.417   1_654  S
N52          C53   1.352       .  A
C53          N54   1.354   1_556  A
C53         C912   1.421       .  S
C55          N56   1.360   1_554  A
C55          N60   1.357       .  A
C55         C906   1.441       .  S
N56          C57   1.360       .  A
C57          N58   1.359       .  A
C57         C907   1.444       .  S
N58          C59   1.359       .  A
C59          N60   1.358   1_556  A
C59         C938   1.440       .  S
C61          N62   1.354       .  A
C61          N66   1.355   1_556  A
C61         C903   1.425       .  S
N62          C63   1.354   1_556  A
C63          N64   1.353       .  A
C63         C943   1.421       .  S
N64          C65   1.352       .  A
C65          N66   1.355       .  A
C65         C902   1.423       .  S
C67          N68   1.357       .  A
C67          N72   1.360   1_556  A
C67         C900   1.440       .  S
N68          C69   1.357   1_556  A
C69          N70   1.359       .  A
C69         C949   1.439       .  S
N70          C71   1.359       .  A
C71          N72   1.360       .  A
C71         C897   1.443       .  S
C73          N74   1.353       .  A
C73          N78   1.355       .  A
C73         C895   1.425       .  S
N74          C75   1.354       .  A
C75          N76   1.353   1_565  A
C75         C932   1.420       .  S
N76          C77   1.352       .  A
C77          N78   1.355   1_545  A
C77         C893   1.423       .  S
C79          N80   1.358       .  A
C79          N84   1.360   1_545  A
C79         C889   1.442       .  S
N80          C81   1.358   1_545  A
C81          N82   1.359       .  A
C81         C913   1.441       .  S
N82          C83   1.359       .  A
C83          N84   1.360       .  A
C83         C892   1.443       .  S
C85          N86   1.352       .  A
C85          N90   1.353   1_545  A
C85         C885   1.419       .  S
N86          C87   1.352   1_545  A
C87          N88   1.352       .  A
C87         C920   1.417       .  S
N88          C89   1.352       .  A
C89          N90   1.353       .  A
C89         C887   1.419       .  S
C91          N92   1.359       .  A
C91          N96   1.360       .  A
C91         C884   1.443       .  S
N92          C93   1.359       .  A
C93          N94   1.359   1_565  A
C93         C925   1.441       .  S
N94          C95   1.359       .  A
C95          N96   1.360   1_545  A
C95         C882   1.444       .  S
C97          N98   1.354       .  A
C97         N102   1.353       .  A
C97         C880   1.422   1_455  S
N98          C99   1.353       .  A
C99         N100   1.352       .  A
C99         C877   1.421       .  S
N100        C101   1.353       .  A
C101        N102   1.354       .  A
C101        C875   1.420   1_545  S
C103        N104   1.359       .  A
C103        N108   1.358       .  A
C103        C874   1.441   1_455  S
N104        C105   1.359       .  A
C105        N106   1.359       .  A
C105        C871   1.443       .  S
N106        C107   1.359       .  A
C107        N108   1.358       .  A
C107        C869   1.441       .  S
C109        N110   1.353       .  A
C109        N114   1.355       .  A
C109        C866   1.425       .  S
N110        C111   1.354       .  A
C111        N112   1.353       .  A
C111        C876   1.420       .  S
N112        C113   1.352       .  A
C113        N114   1.355       .  A
C113        C867   1.424   1_455  S
C115        N116   1.360       .  A
C115        N120   1.358       .  A
C115        C863   1.443   1_455  S
N116        C117   1.360       .  A
C117        N118   1.359       .  A
C117        C862   1.443       .  S
N118        C119   1.359       .  A
C119        N120   1.358       .  A
C119        C859   1.440       .  S
C121        N122   1.354       .  A
C121        N126   1.355       .  A
C121        C857   1.426       .  S
N122        C123   1.354       .  A
C123        N124   1.353       .  A
C123        C854   1.422       .  S
N124        C125   1.352       .  A
C125        N126   1.355       .  A
C125        C855   1.423   1_455  S
C127        N128   1.358       .  A
C127        N132   1.360       .  A
C127        C851   1.442       .  S
N128        C129   1.358       .  A
C129        N130   1.359       .  A
C129        C860   1.440       .  S
N130        C131   1.359       .  A
C131        N132   1.360       .  A
C131        C850   1.444   1_455  S
C133        N134   1.354       .  A
C133        N138   1.354       .  A
C133        C848   1.424   1_455  S
N134        C135   1.354       .  A
C135        N136   1.353       .  A
C135        C853   1.421   1_545  S
N136        C137   1.352       .  A
C137        N138   1.354       .  A
C137        C845   1.423       .  S
C139        N140   1.358       .  A
C139        N144   1.361       .  A
C139        C842   1.444       .  S
N140        C141   1.358       .  A
C141        N142   1.359       .  A
C141        C870   1.441       .  S
N142        C143   1.359       .  A
C143        N144   1.361       .  A
C143        C843   1.445   1_455  S
C145        N146   1.354       .  A
C145        N150   1.353       .  A
C145        C838   1.422       .  S
N146        C147   1.354       .  A
C147        N148   1.353       .  A
C147        C840   1.422       .  S
N148        C149   1.353       .  A
C149        N150   1.353       .  A
C149        C835   1.420       .  S
C151        N152   1.358       .  A
C151        N156   1.360       .  A
C151        C834   1.442       .  S
N152        C153   1.358       .  A
C153        N154   1.359       .  A
C153        C829   1.440       .  S
N154        C155   1.359       .  A
C155        N156   1.360       .  A
C155        C832   1.443       .  S
O157       Zr193   2.419       .  S
O157        C168   1.287       .  A
O158       Zr192   2.454       .  S
O158        C169   1.293       .  A
O159       Zr165   2.453       .  S
O159        C170   1.293       .  A
O160       Zr165   2.425       .  S
O160        C171   1.288       .  A
O161       Zr195   2.436       .  S
O161        C171   1.290       .  A
O162       Zr194   2.442       .  S
O162        C170   1.291       .  A
O163       Zr165   2.436       .  S
O163        C169   1.290       .  A
O164       Zr165   2.430       .  S
O164        C168   1.289       .  A
Zr165       O166   2.345       .  S
Zr165       O167   2.339       .  S
Zr165       O175   2.345       .  S
Zr165       O173   2.333       .  S
O166       Zr192   2.330       .  S
O166       Zr195   2.338       .  S
O167       Zr193   2.345       .  S
O167       Zr194   2.329       .  S
C168        C958   1.419       .  S
C169        C852   1.442       .  S
C170        C831   1.442       .  S
C171        C858   1.425       .  S
H172        O173   0.966       .  S
O173       Zr192   2.341       .  S
O173       Zr194   2.346       .  S
H174        O175   0.965       .  S
O175       Zr193   2.347       .  S
O175       Zr195   2.346       .  S
O176       Zr192   2.423       .  S
O176        C199   1.288       .  A
O177       Zr193   2.454       .  S
O177        C200   1.293       .  A
O178       Zr194   2.421       .  S
O178        C201   1.287       .  A
O179       Zr195   2.454       .  S
O179        C202   1.293       .  A
O180       Zr195   2.419       .  S
O180        C203   1.287       .  A
O181       Zr194   2.449       .  S
O181        C204   1.292       .  A
O182       Zr196   2.420       .  S
O182        C205   1.287       .  A
O183       Zr196   2.451       .  S
O183        C206   1.293       .  A
O184       Zr194   2.429       .  S
O184        C205   1.289       .  A
O185       Zr195   2.440       .  S
O185        C206   1.291       .  A
O186       Zr192   2.431       .  S
O186        C201   1.289       .  A
O187       Zr193   2.438       .  S
O187        C204   1.290       .  A
O188       Zr193   2.428       .  S
O188        C203   1.289       .  A
O189       Zr192   2.441       .  S
O189        C202   1.291       .  A
O190       Zr196   2.433       .  S
O190        C199   1.290       .  A
O191       Zr196   2.443       .  S
O191        C200   1.291       .  A
Zr192       O198   2.341       .  S
Zr192       O210   2.346       .  S
Zr193       O197   2.338       .  S
Zr193       O208   2.328       .  S
Zr194       O198   2.341       .  S
Zr194       O208   2.342       .  S
Zr195       O197   2.346       .  S
Zr195       O210   2.331       .  S
Zr196       O197   2.328       .  S
Zr196       O198   2.341       .  S
Zr196       O210   2.342       .  S
Zr196       O208   2.347       .  S
C199        C825   1.423       .  S
C200        C824   1.444       .  S
C201        C837   1.421       .  S
C202        C827   1.443       .  S
C203        C888   1.418       .  S
C204        C952   1.440       .  S
C205        C822   1.419       .  S
C206        C883   1.442       .  S
H207        O208   0.966       .  S
H209        O210   0.966       .  S
C211        N212   1.355       .  A
C211        N216   1.354       .  A
C211        C820   1.425       .  S
N212        C213   1.355       .  A
C213        N214   1.352       .  A
C213        C818   1.422       .  S
N214        C215   1.352       .  A
C215        N216   1.354       .  A
C215        C815   1.421       .  S
C217        N218   1.360       .  A
C217        N222   1.358       .  A
C217        C813   1.442       .  S
N218        C219   1.360       .  A
C219        N220   1.359       .  A
C219        C811   1.443       .  S
N220        C221   1.359       .  A
C221        N222   1.358       .  A
C221        C810   1.441   1_545  S
O223       Zr259   2.420       .  S
O223        C234   1.287       .  A
O224       Zr258   2.451       .  S
O224        C235   1.293       .  A
O225       Zr231   2.456       .  S
O225        C236   1.294       .  A
O226       Zr231   2.428       .  S
O226        C237   1.289       .  A
O227       Zr261   2.434       .  S
O227        C237   1.290       .  A
O228       Zr260   2.438       .  S
O228        C236   1.290       .  A
O229       Zr231   2.434       .  S
O229        C235   1.289       .  A
O230       Zr231   2.430       .  S
O230        C234   1.289       .  A
Zr231       O232   2.345       .  S
Zr231       O233   2.339       .  S
Zr231       O241   2.344       .  S
Zr231       O239   2.332       .  S
O232       Zr258   2.329       .  S
O232       Zr261   2.339       .  S
O233       Zr259   2.344       .  S
O233       Zr260   2.331       .  S
C234        C922   1.420       .  S
C235        C899   1.439       .  S
C236        C804   1.442       .  S
C237        C904   1.425       .  S
H238        O239   0.966       .  S
O239       Zr258   2.340       .  S
O239       Zr260   2.347       .  S
H240        O241   0.965       .  S
O241       Zr259   2.346       .  S
O241       Zr261   2.347       .  S
O242       Zr258   2.421       .  S
O242        C265   1.287       .  A
O243       Zr259   2.451       .  S
O243        C266   1.293       .  A
O244       Zr260   2.422       .  S
O244        C267   1.288       .  A
O245       Zr261   2.455       .  S
O245        C268   1.294       .  A
O246       Zr261   2.420       .  S
O246        C269   1.287       .  A
O247       Zr260   2.451       .  S
O247        C270   1.293       .  A
O248       Zr262   2.418       .  S
O248        C271   1.287       .  A
O249       Zr262   2.448       .  S
O249        C272   1.292       .  A
O250       Zr260   2.434       .  S
O250        C271   1.290       .  A
O251       Zr261   2.442       .  S
O251        C272   1.291       .  A
O252       Zr258   2.430       .  S
O252        C267   1.289       .  A
O253       Zr259   2.442       .  S
O253        C270   1.291       .  A
O254       Zr259   2.433       .  S
O254        C269   1.290       .  A
O255       Zr258   2.438       .  S
O255        C268   1.290       .  A
O256       Zr262   2.434       .  S
O256        C265   1.290       .  A
O257       Zr262   2.444       .  S
O257        C266   1.291       .  A
Zr258       O264   2.340       .  S
Zr258       O276   2.347       .  S
Zr259       O263   2.339       .  S
Zr259       O274   2.331       .  S
Zr260       O264   2.340       .  S
Zr260       O274   2.339       .  S
Zr261       O263   2.345       .  S
Zr261       O276   2.331       .  S
Zr262       O263   2.329       .  S
Zr262       O264   2.341       .  S
Zr262       O276   2.341       .  S
Zr262       O274   2.346       .  S
C265        C805   1.423       .  S
C266        C812   1.442       .  S
C267        C801   1.421       .  S
C268        C808   1.441       .  S
C269        C878   1.421       .  S
C270        C916   1.443       .  S
C271        C817   1.421       .  S
C272        C872   1.442       .  S
H273        O274   0.966       .  S
H275        O276   0.966       .  S
C277        N278   1.353       .  A
C277        N282   1.355       .  A
C277        C826   1.424       .  S
N278        C279   1.353       .  A
C279        N280   1.352       .  A
C279        C797   1.419       .  S
N280        C281   1.352       .  A
C281        N282   1.355       .  A
C281        C799   1.423       .  S
C283        N284   1.360       .  A
C283        N288   1.358       .  A
C283        C795   1.442       .  S
N284        C285   1.360       .  A
C285        N286   1.359       .  A
C285        C828   1.444       .  S
N286        C287   1.359       .  A
C287        N288   1.358       .  A
C287        C809   1.441       .  S
C289        N290   1.353       .  A
C289        N294   1.355       .  A
C289        C793   1.424       .  S
N290        C291   1.353       .  A
C291        N292   1.353       .  A
C291        C836   1.420       .  S
N292        C293   1.353       .  A
C293        N294   1.355       .  A
C293        C806   1.423       .  S
C295        N296   1.360       .  A
C295        N300   1.358       .  A
C295        C807   1.442       .  S
N296        C297   1.360       .  A
C297        N298   1.358       .  A
C297        C791   1.443       .  S
N298        C299   1.358       .  A
C299        N300   1.358       .  A
C299        C789   1.439       .  S
O301       Zr337   2.424       .  S
O301        C312   1.288       .  A
O302       Zr336   2.452       .  S
O302        C313   1.293       .  A
O303       Zr309   2.425       .  S
O303        C314   1.288       .  A
O304       Zr309   2.452       .  S
O304        C315   1.293       .  A
O305       Zr339   2.439       .  S
O305        C315   1.290       .  A
O306       Zr338   2.433       .  S
O306        C314   1.290       .  A
O307       Zr309   2.442       .  S
O307        C313   1.291       .  A
O308       Zr309   2.428       .  S
O308        C312   1.289       .  A
Zr309       O310   2.330       .  S
Zr309       O311   2.341       .  S
Zr309       O319   2.343       .  S
Zr309       O317   2.345       .  S
O310       Zr336   2.336       .  S
O310       Zr339   2.344       .  S
O311       Zr337   2.342       .  S
O311       Zr338   2.341       .  S
C312        C959   1.421       .  S
C313        C861   1.442       .  S
C314        C865   1.424       .  S
C315        C792   1.442       .  S
H316        O317   0.966       .  S
O317       Zr336   2.332       .  S
O317       Zr338   2.341       .  S
H318        O319   0.966       .  S
O319       Zr337   2.346       .  S
O319       Zr339   2.332       .  S
O320       Zr336   2.417       .  S
O320        C343   1.287       .  A
O321       Zr337   2.451       .  S
O321        C344   1.293       .  A
O322       Zr338   2.453       .  S
O322        C345   1.293       .  A
O323       Zr339   2.421       .  S
O323        C346   1.287       .  A
O324       Zr339   2.449       .  S
O324        C347   1.292       .  A
O325       Zr338   2.422       .  S
O325        C348   1.288       .  A
O326       Zr340   2.454       .  S
O326        C349   1.293       .  A
O327       Zr340   2.420       .  S
O327        C350   1.287       .  A
O328       Zr338   2.440       .  S
O328        C349   1.290       .  A
O329       Zr339   2.433       .  S
O329        C350   1.290       .  A
O330       Zr336   2.436       .  S
O330        C345   1.290       .  A
O331       Zr337   2.430       .  S
O331        C348   1.289       .  A
O332       Zr337   2.444       .  S
O332        C347   1.291       .  A
O333       Zr336   2.434       .  S
O333        C346   1.290       .  A
O334       Zr340   2.437       .  S
O334        C343   1.291       .  A
O335       Zr340   2.441       .  S
O335        C344   1.291       .  A
Zr336       O342   2.345       .  S
Zr336       O354   2.347       .  S
Zr337       O341   2.328       .  S
Zr337       O352   2.343       .  S
Zr338       O342   2.329       .  S
Zr338       O352   2.347       .  S
Zr339       O341   2.337       .  S
Zr339       O354   2.345       .  S
Zr340       O341   2.345       .  S
Zr340       O342   2.338       .  S
Zr340       O354   2.347       .  S
Zr340       O352   2.331       .  S
C343        C800   1.422       .  S
C344        C788   1.442       .  S
C345        C796   1.441       .  S
C346        C794   1.423       .  S
C347        C953   1.442       .  S
C348        C924   1.420       .  S
C349        C918   1.442       .  S
C350        C786   1.421       .  S
H351        O352   0.966       .  S
H353        O354   0.966       .  S
C355        N356   1.352       .  A
C355        N360   1.354       .  A
C355        C784   1.420       .  S
N356        C357   1.352       .  A
C357        N358   1.353       .  A
C357        C779   1.417       .  S
N358        C359   1.352       .  A
C359        N360   1.354       .  A
C359        C781   1.421       .  S
C361        N362   1.358       .  A
C361        N366   1.359       .  A
C361        C775   1.442       .  S
N362        C363   1.358       .  A
C363        N364   1.359       .  A
C363        C830   1.440   1_655  S
N364        C365   1.359       .  A
C365        N366   1.359       .  A
C365        C778   1.442       .  S
C367        N368   1.354       .  A
C367        N372   1.354       .  A
C367        C774   1.422       .  S
N368        C369   1.354       .  A
C369        N370   1.352       .  A
C369        C821   1.420       .  S
N370        C371   1.352       .  A
C371        N372   1.354       .  A
C371        C772   1.419       .  S
C373        N374   1.360       .  A
C373        N378   1.358       .  A
C373        C770   1.442       .  S
N374        C375   1.361       .  A
C375        N376   1.359       .  A
C375        C823   1.444       .  S
N376        C377   1.359       .  A
C377        N378   1.358       .  A
C377        C767   1.440       .  S
O379       Zr415   2.421       .  S
O379        C390   1.287       .  A
O380       Zr414   2.454       .  S
O380        C391   1.293       .  A
O381       Zr387   2.422       .  S
O381        C392   1.288       .  A
O382       Zr387   2.453       .  S
O382        C393   1.293       .  A
O383       Zr417   2.437       .  S
O383        C393   1.290       .  A
O384       Zr416   2.429       .  S
O384        C392   1.289       .  A
O385       Zr387   2.438       .  S
O385        C391   1.290       .  A
O386       Zr387   2.429       .  S
O386        C390   1.289       .  A
Zr387       O388   2.328       .  S
Zr387       O389   2.340       .  S
Zr387       O397   2.340       .  S
Zr387       O395   2.348       .  S
O388       Zr414   2.338       .  S
O388       Zr417   2.344       .  S
O389       Zr415   2.339       .  S
O389       Zr416   2.341       .  S
C390        C935   1.420       .  S
C391        C905   1.441       .  S
C392        C910   1.420       .  S
C393        C769   1.442       .  S
H394        O395   0.966       .  S
O395       Zr414   2.330       .  S
O395       Zr416   2.342       .  S
H396        O397   0.966       .  S
O397       Zr415   2.346       .  S
O397       Zr417   2.331       .  S
O398       Zr414   2.420       .  S
O398        C421   1.287       .  A
O399       Zr415   2.448       .  S
O399        C422   1.292       .  A
O400       Zr416   2.450       .  S
O400        C423   1.293       .  A
O401       Zr417   2.425       .  S
O401        C424   1.288       .  A
O402       Zr417   2.453       .  S
O402        C425   1.293       .  A
O403       Zr416   2.420       .  S
O403        C426   1.287       .  A
O404       Zr418   2.454       .  S
O404        C427   1.293       .  A
O405       Zr418   2.419       .  S
O405        C428   1.287       .  A
O406       Zr416   2.441       .  S
O406        C427   1.291       .  A
O407       Zr417   2.433       .  S
O407        C428   1.290       .  A
O408       Zr414   2.438       .  S
O408        C423   1.290       .  A
O409       Zr415   2.435       .  S
O409        C426   1.290       .  A
O410       Zr415   2.443       .  S
O410        C425   1.291       .  A
O411       Zr414   2.428       .  S
O411        C424   1.289       .  A
O412       Zr418   2.433       .  S
O412        C421   1.290       .  A
O413       Zr418   2.443       .  S
O413        C422   1.291       .  A
Zr414       O420   2.345       .  S
Zr414       O432   2.346       .  S
Zr415       O419   2.330       .  S
Zr415       O430   2.342       .  S
Zr416       O420   2.328       .  S
Zr416       O430   2.346       .  S
Zr417       O419   2.339       .  S
Zr417       O432   2.344       .  S
Zr418       O419   2.344       .  S
Zr418       O420   2.339       .  S
Zr418       O432   2.348       .  S
Zr418       O430   2.331       .  S
C421        C782   1.421       .  S
C422        C765   1.443       .  S
C423        C776   1.441       .  S
C424        C773   1.421       .  S
C425        C930   1.443       .  S
C426        C856   1.422       .  S
C427        C849   1.443       .  S
C428        C763   1.421       .  S
H429        O430   0.966       .  S
H431        O432   0.965       .  S
C433        N434   1.354       .  A
C433        N438   1.353       .  A
C433        C761   1.423       .  S
N434        C435   1.354       .  A
C435        N436   1.352       .  A
C435        C764   1.422       .  S
N436        C437   1.352       .  A
C437        N438   1.353       .  A
C437        C798   1.419       .  S
C439        N440   1.358       .  A
C439        N444   1.360       .  A
C439        C759   1.442       .  S
N440        C441   1.358       .  A
C441        N442   1.360       .  A
C441        C758   1.441       .  S
N442        C443   1.360       .  A
C443        N444   1.360       .  A
C443        C766   1.444       .  S
C445        N446   1.354       .  A
C445        N450   1.353       .  A
C445        C755   1.422       .  S
N446        C447   1.354       .  A
C447        N448   1.352       .  A
C447        C785   1.422       .  S
N448        C449   1.352       .  A
C449        N450   1.353       .  A
C449        C753   1.419       .  S
C451        N452   1.360       .  A
C451        N456   1.358       .  A
C451        C787   1.443       .  S
N452        C453   1.360       .  A
C453        N454   1.359       .  A
C453        C751   1.443       .  S
N454        C455   1.359       .  A
C455        N456   1.358       .  A
C455        C768   1.440       .  S
C457        N458   1.355       .  A
C457        N462   1.352       .  A
C457        C748   1.422       .  S
N458        C459   1.355       .  A
C459        N460   1.352       .  A
C459        C749   1.421       .  S
N460        C461   1.352       .  A
C461        N462   1.352       .  A
C461        C780   1.417       .  S
C463        N464   1.357       .  A
C463        N468   1.360       .  A
C463        C746   1.441       .  S
N464        C465   1.358       .  A
C465        N466   1.359       .  A
C465        C790   1.439   1_655  S
N466        C467   1.359       .  A
C467        N468   1.360       .  A
C467        C744   1.443       .  S
O469       Zr505   2.417       .  S
O469        C480   1.287       .  A
O470       Zr504   2.450       .  S
O470        C481   1.293       .  A
O471       Zr477   2.451       .  S
O471        C482   1.293       .  A
O472       Zr477   2.419       .  S
O472        C483   1.287       .  A
O473       Zr507   2.438       .  S
O473        C483   1.291       .  A
O474       Zr506   2.438       .  S
O474        C482   1.290       .  A
O475       Zr477   2.442       .  S
O475        C481   1.291       .  A
O476       Zr477   2.433       .  S
O476        C480   1.290       .  A
Zr477       O478   2.345       .  S
Zr477       O479   2.338       .  S
Zr477       O487   2.347       .  S
Zr477       O485   2.330       .  S
O478       Zr504   2.331       .  S
O478       Zr507   2.340       .  S
O479       Zr505   2.345       .  S
O479       Zr506   2.327       .  S
C480        C911   1.420       .  S
C481        C864   1.442       .  S
C482        C745   1.440       .  S
C483        C868   1.423       .  S
H484        O485   0.966       .  S
O485       Zr504   2.340       .  S
O485       Zr506   2.346       .  S
H486        O487   0.966       .  S
O487       Zr505   2.346       .  S
O487       Zr507   2.346       .  S
O488       Zr504   2.422       .  S
O488        C511   1.288       .  A
O489       Zr505   2.453       .  S
O489        C512   1.293       .  A
O490       Zr506   2.418       .  S
O490        C513   1.287       .  A
O491       Zr507   2.453       .  S
O491        C514   1.293       .  A
O492       Zr507   2.425       .  S
O492        C515   1.288       .  A
O493       Zr506   2.449       .  S
O493        C516   1.292       .  A
O494       Zr508   2.426       .  S
O494        C517   1.288       .  A
O495       Zr508   2.450       .  S
O495        C518   1.293       .  A
O496       Zr506   2.428       .  S
O496        C517   1.289       .  A
O497       Zr507   2.442       .  S
O497        C518   1.291       .  A
O498       Zr504   2.431       .  S
O498        C513   1.289       .  A
O499       Zr505   2.442       .  S
O499        C516   1.291       .  A
O500       Zr505   2.435       .  S
O500        C515   1.290       .  A
O501       Zr504   2.439       .  S
O501        C514   1.290       .  A
O502       Zr508   2.432       .  S
O502        C511   1.290       .  A
O503       Zr508   2.440       .  S
O503        C512   1.291       .  A
Zr504       O510   2.341       .  S
Zr504       O522   2.346       .  S
Zr505       O509   2.337       .  S
Zr505       O520   2.329       .  S
Zr506       O510   2.341       .  S
Zr506       O520   2.340       .  S
Zr507       O509   2.345       .  S
Zr507       O522   2.334       .  S
Zr508       O509   2.331       .  S
Zr508       O510   2.340       .  S
Zr508       O522   2.342       .  S
Zr508       O520   2.345       .  S
C511        C762   1.422       .  S
C512        C752   1.442       .  S
C513        C750   1.420       .  S
C514        C760   1.441       .  S
C515        C896   1.424       .  S
C516        C908   1.443       .  S
C517        C756   1.422       .  S
C518        C891   1.442       .  S
H519        O520   0.966       .  S
H521        O522   0.966       .  S
C523        N524   1.354       .  A
C523        N528   1.354       .  A
C523        C739   1.423       .  S
N524        C525   1.354       .  A
C525        N526   1.352       .  A
C525        C741   1.420       .  S
N526        C527   1.352       .  A
C527        N528   1.354       .  A
C527        C771   1.419       .  S
C529        N530   1.358       .  A
C529        N534   1.360       .  A
C529        C738   1.442       .  S
N530        C531   1.358       .  A
C531        N532   1.359       .  A
C531        C733   1.440       .  S
N532        C533   1.359       .  A
C533        N534   1.360       .  A
C533        C736   1.444       .  S
O535       Zr571   2.425       .  S
O535        C546   1.288       .  A
O536       Zr570   2.454       .  S
O536        C547   1.294       .  A
O537       Zr543   2.451       .  S
O537        C548   1.293       .  A
O538       Zr543   2.425       .  S
O538        C549   1.288       .  A
O539       Zr573   2.432       .  S
O539        C549   1.290       .  A
O540       Zr572   2.441       .  S
O540        C548   1.291       .  A
O541       Zr543   2.440       .  S
O541        C547   1.291       .  A
O542       Zr543   2.432       .  S
O542        C546   1.290       .  A
Zr543       O544   2.344       .  S
Zr543       O545   2.340       .  S
Zr543       O553   2.344       .  S
Zr543       O551   2.333       .  S
O544       Zr570   2.329       .  S
O544       Zr573   2.339       .  S
O545       Zr571   2.344       .  S
O545       Zr572   2.329       .  S
C546        C946   1.423       .  S
C547        C844   1.444       .  S
C548        C777   1.441       .  S
C549        C847   1.423       .  S
H550        O551   0.966       .  S
O551       Zr570   2.341       .  S
O551       Zr572   2.348       .  S
H552        O553   0.965       .  S
O553       Zr571   2.346       .  S
O553       Zr573   2.346       .  S
O554       Zr570   2.421       .  S
O554        C577   1.287       .  A
O555       Zr571   2.454       .  S
O555        C578   1.293       .  A
O556       Zr572   2.418       .  S
O556        C579   1.287       .  A
O557       Zr573   2.458       .  S
O557        C580   1.294       .  A
O558       Zr573   2.421       .  S
O558        C581   1.288       .  A
O559       Zr572   2.450       .  S
O559        C582   1.293       .  A
O560       Zr574   2.420       .  S
O560        C583   1.287       .  A
O561       Zr574   2.452       .  S
O561        C584   1.293       .  A
O562       Zr572   2.430       .  S
O562        C583   1.289       .  A
O563       Zr573   2.441       .  S
O563        C584   1.291       .  A
O564       Zr570   2.430       .  S
O564        C579   1.289       .  A
O565       Zr571   2.445       .  S
O565        C582   1.292       .  A
O566       Zr571   2.432       .  S
O566        C581   1.290       .  A
O567       Zr570   2.437       .  S
O567        C580   1.290       .  A
O568       Zr574   2.433       .  S
O568        C577   1.290       .  A
O569       Zr574   2.440       .  S
O569        C578   1.290       .  A
Zr570       O576   2.340       .  S
Zr570       O588   2.348       .  S
Zr571       O575   2.341       .  S
Zr571       O586   2.331       .  S
Zr572       O576   2.340       .  S
Zr572       O586   2.341       .  S
Zr573       O575   2.345       .  S
Zr573       O588   2.329       .  S
Zr574       O575   2.328       .  S
Zr574       O576   2.340       .  S
Zr574       O588   2.341       .  S
Zr574       O586   2.349       .  S
C577        C729   1.422       .  S
C578        C737   1.441       .  S
C579        C783   1.419       .  S
C580        C732   1.442       .  S
C581        C933   1.421       .  S
C582        C939   1.444       .  S
C583        C742   1.420       .  S
C584        C928   1.443       .  S
H585        O586   0.966       .  S
H587        O588   0.966       .  S
C589        N590   1.354       .  A
C589        N594   1.353       .  A
C589        C802   1.422       .  S
N590        C591   1.354       .  A
C591        N592   1.352       .  A
C591        C727   1.421       .  S
N592        C593   1.352       .  A
C593        N594   1.353       .  A
C593        C754   1.419       .  S
C595        N596   1.361       .  A
C595        N600   1.358       .  A
C595        C803   1.443       .  S
N596        C597   1.361       .  A
C597        N598   1.359       .  A
C597        C725   1.444       .  S
N598        C599   1.359       .  A
C599        N600   1.358       .  A
C599        C734   1.440       .  S
C601        N602   1.354       .  A
C601        N606   1.355       .  A
C601        C723   1.425       .  S
N602        C603   1.354       .  A
C603        N604   1.352       .  A
C603        C816   1.421       .  S
N604        C605   1.352       .  A
C605        N606   1.355       .  A
C605        C730   1.422       .  S
C607        N608   1.361       .  A
C607        N612   1.358       .  A
C607        C731   1.443       .  S
N608        C609   1.361       .  A
C609        N610   1.359       .  A
C609        C722   1.445       .  S
N610        C611   1.359       .  A
C611        N612   1.358       .  A
C611        C757   1.441   1_545  S
O613       Zr649   2.420       .  S
O613        C624   1.287       .  A
O614       Zr648   2.452       .  S
O614        C625   1.293       .  A
O615       Zr621   2.422       .  S
O615        C626   1.288       .  A
O616       Zr621   2.451       .  S
O616        C627   1.293       .  A
O617       Zr651   2.441       .  S
O617        C627   1.291       .  A
O618       Zr650   2.429       .  S
O618        C626   1.289       .  A
O619       Zr621   2.440       .  S
O619        C625   1.291       .  A
O620       Zr621   2.432       .  S
O620        C624   1.290       .  A
Zr621       O622   2.329       .  S
Zr621       O623   2.340       .  S
Zr621       O631   2.341       .  S
Zr621       O629   2.349       .  S
O622       Zr648   2.340       .  S
O622       Zr651   2.344       .  S
O623       Zr649   2.339       .  S
O623       Zr650   2.340       .  S
C624        C947   1.421       .  S
C625        C873   1.441       .  S
C626        C879   1.421       .  S
C627        C743   1.442       .  S
H628        O629   0.966       .  S
O629       Zr648   2.333       .  S
O629       Zr650   2.341       .  S
H630        O631   0.966       .  S
O631       Zr649   2.348       .  S
O631       Zr651   2.330       .  S
O632       Zr648   2.426       .  S
O632        C655   1.288       .  A
O633       Zr649   2.452       .  S
O633        C656   1.293       .  A
O634       Zr650   2.453       .  S
O634        C657   1.293       .  A
O635       Zr651   2.420       .  S
O635        C658   1.287       .  A
O636       Zr651   2.453       .  S
O636        C659   1.293       .  A
O637       Zr650   2.421       .  S
O637        C660   1.287       .  A
O638       Zr652   2.452       .  S
O638        C661   1.293       .  A
O639       Zr652   2.419       .  S
O639        C662   1.287       .  A
O640       Zr650   2.439       .  S
O640        C661   1.290       .  A
O641       Zr651   2.431       .  S
O641        C662   1.290       .  A
O642       Zr648   2.442       .  S
O642        C657   1.291       .  A
O643       Zr649   2.432       .  S
O643        C660   1.290       .  A
O644       Zr649   2.437       .  S
O644        C659   1.290       .  A
O645       Zr648   2.433       .  S
O645        C658   1.290       .  A
O646       Zr652   2.434       .  S
O646        C655   1.290       .  A
O647       Zr652   2.441       .  S
O647        C656   1.291       .  A
Zr648       O654   2.343       .  S
Zr648       O666   2.346       .  S
Zr649       O653   2.328       .  S
Zr649       O664   2.340       .  S
Zr650       O654   2.329       .  S
Zr650       O664   2.347       .  S
Zr651       O653   2.338       .  S
Zr651       O666   2.347       .  S
Zr652       O653   2.344       .  S
Zr652       O654   2.338       .  S
Zr652       O666   2.347       .  S
Zr652       O664   2.331       .  S
C655        C724   1.425       .  S
C656        C726   1.443       .  S
C657        C721   1.444       .  S
C658        C747   1.421       .  S
C659        C941   1.440       .  S
C660        C894   1.422       .  S
C661        C890   1.441       .  S
C662        C728   1.420       .  S
H663        O664   0.966       .  S
H665        O666   0.965       .  S
O667       Zr703   2.421       .  S
O667        C678   1.287       .  A
O668       Zr702   2.458       .  S
O668        C679   1.294       .  A
O669       Zr675   2.422       .  S
O669        C680   1.288       .  A
O670       Zr675   2.450       .  S
O670        C681   1.293       .  A
O671       Zr705   2.440       .  S
O671        C681   1.291       .  A
O672       Zr704   2.433       .  S
O672        C680   1.290       .  A
O673       Zr675   2.438       .  S
O673        C679   1.290       .  A
O674       Zr675   2.434       .  S
O674        C678   1.290       .  A
Zr675       O676   2.332       .  S
Zr675       O677   2.340       .  S
Zr675       O685   2.341       .  S
Zr675       O683   2.348       .  S
O676       Zr702   2.340       .  S
O676       Zr705   2.345       .  S
O677       Zr703   2.342       .  S
O677       Zr704   2.341       .  S
C678        C901   1.422       .  S
C679        C841   1.443       .  S
C680        C846   1.422       .  S
C681        C833   1.442       .  S
H682        O683   0.966       .  S
O683       Zr702   2.332       .  S
O683       Zr704   2.341       .  S
H684        O685   0.966       .  S
O685       Zr703   2.345       .  S
O685       Zr705   2.331       .  S
O686       Zr702   2.425       .  S
O686        C709   1.288       .  A
O687       Zr703   2.451       .  S
O687        C710   1.293       .  A
O688       Zr704   2.451       .  S
O688        C711   1.293       .  A
O689       Zr705   2.420       .  S
O689        C712   1.287       .  A
O690       Zr705   2.453       .  S
O690        C713   1.293       .  A
O691       Zr704   2.420       .  S
O691        C714   1.287       .  A
O692       Zr706   2.456       .  S
O692        C715   1.294       .  A
O693       Zr706   2.424       .  S
O693        C716   1.288       .  A
O694       Zr704   2.441       .  S
O694        C715   1.291       .  A
O695       Zr705   2.432       .  S
O695        C716   1.290       .  A
O696       Zr702   2.439       .  S
O696        C711   1.290       .  A
O697       Zr703   2.427       .  S
O697        C714   1.289       .  A
O698       Zr703   2.442       .  S
O698        C713   1.291       .  A
O699       Zr702   2.434       .  S
O699        C712   1.290       .  A
O700       Zr706   2.434       .  S
O700        C709   1.290       .  A
O701       Zr706   2.442       .  S
O701        C710   1.291       .  A
Zr702       O708   2.346       .  S
Zr702       O720   2.344       .  S
Zr703       O707   2.329       .  S
Zr703       O718   2.342       .  S
Zr704       O708   2.329       .  S
Zr704       O718   2.348       .  S
Zr705       O707   2.339       .  S
Zr705       O720   2.345       .  S
Zr706       O707   2.346       .  S
Zr706       O708   2.340       .  S
Zr706       O720   2.345       .  S
Zr706       O718   2.330       .  S
C709        C819   1.424       .  S
C710        C735   1.443       .  S
C711        C814   1.442       .  S
C712        C839   1.421       .  S
C713        C898   1.442       .  S
C714        C886   1.418       .  S
C715        C881   1.443       .  S
C716        C740   1.422       .  S
H717        O718   0.966       .  S
H719        O720   0.965       .  S
C721        C722   1.211       .  T
C723        C724   1.200       .  T
C725        C726   1.211       .  T
C727        C728   1.197       .  T
C729        C730   1.198       .  T
C731        C732   1.210       .  T
C733        C734   1.208   1_554  T
C735        C736   1.211       .  T
C737        C738   1.210       .  T
C739        C740   1.198       .  T
C741        C742   1.197       .  T
C743        C744   1.210       .  T
C745        C746   1.209       .  T
C747        C748   1.198       .  T
C749        C750   1.197       .  T
C751        C752   1.210       .  T
C753        C754   1.196       .  T
C755        C756   1.198       .  T
C757        C758   1.209       .  T
C759        C760   1.209       .  T
C761        C762   1.198       .  T
C763        C764   1.198       .  T
C765        C766   1.211       .  T
C767        C768   1.208   1_554  T
C769        C770   1.210       .  T
C771        C772   1.196       .  T
C773        C774   1.198       .  T
C775        C776   1.209       .  T
C777        C778   1.209       .  T
C779        C780   1.195       .  T
C781        C782   1.197       .  T
C783        C784   1.197       .  T
C785        C786   1.198       .  T
C787        C788   1.210       .  T
C789        C790   1.208       .  T
C791        C792   1.210       .  T
C793        C794   1.199       .  T
C795        C796   1.210       .  T
C797        C798   1.196       .  T
C799        C800   1.198       .  T
C801        C802   1.198       .  T
C803        C804   1.210       .  T
C805        C806   1.199       .  T
C807        C808   1.210       .  T
C809        C810   1.209       .  T
C811        C812   1.210       .  T
C813        C814   1.210       .  T
C815        C816   1.197       .  T
C817        C818   1.198       .  T
C819        C820   1.199       .  T
C821        C822   1.196       .  T
C823        C824   1.211       .  T
C825        C826   1.199       .  T
C827        C828   1.211       .  T
C829        C830   1.209       .  T
C831        C832   1.210       .  T
C833        C834   1.210       .  T
C835        C836   1.196       .  T
C837        C838   1.198       .  T
C839        C840   1.198       .  T
C841        C842   1.211       .  T
C843        C844   1.211       .  T
C845        C846   1.198       .  T
C847        C848   1.199       .  T
C849        C850   1.211       .  T
C851        C852   1.210       .  T
C853        C854   1.197       .  T
C855        C856   1.199       .  T
C857        C858   1.200       .  T
C859        C860   1.209       .  T
C861        C862   1.210       .  T
C863        C864   1.210       .  T
C865        C866   1.199       .  T
C867        C868   1.199       .  T
C869        C870   1.209       .  T
C871        C872   1.210       .  T
C873        C874   1.209       .  T
C875        C876   1.197       .  T
C877        C878   1.197       .  T
C879        C880   1.198       .  T
C881        C882   1.211       .  T
C883        C884   1.210       .  T
C885        C886   1.196       .  T
C887        C888   1.196       .  T
C889        C890   1.210       .  T
C891        C892   1.210       .  T
C893        C894   1.198       .  T
C895        C896   1.199       .  T
C897        C898   1.210       .  T
C899        C900   1.208       .  T
C901        C902   1.198       .  T
C903        C904   1.200       .  T
C905        C906   1.209       .  T
C907        C908   1.210       .  T
C909        C910   1.197       .  T
C911        C912   1.197       .  T
C913        C914   1.209       .  T
C915        C916   1.211       .  T
C917        C918   1.210       .  T
C919        C920   1.195   1_556  T
C921        C922   1.197       .  T
C923        C924   1.197       .  T
C925        C926   1.209       .  T
C927        C928   1.211       .  T
C929        C930   1.211       .  T
C931        C932   1.196   1_554  T
C933        C934   1.198       .  T
C935        C936   1.197       .  T
C937        C938   1.209   1_554  T
C939        C940   1.211       .  T
C941        C942   1.209       .  T
C943        C944   1.197       .  T
C945        C946   1.199       .  T
C947        C948   1.198       .  T
C949        C950   1.208   1_554  T
C951        C952   1.209       .  T
C953        C954   1.210       .  T
C955        C956   1.195       .  T
C957        C958   1.197       .  T
C959        C960   1.197       .  T
