geometry optimzed in LAMMPS
_audit_creation_date              2020-11-30 
_audit_creation_method            'lammps2cif' 
_symmetry_space_group_name_H-M    'P1' 
_symmetry_Int_Tables_number       1 
_symmetry_cell_setting            triclinic 
loop_ 
_symmetry_equiv_pos_as_xyz 
  x,y,z 
_cell_length_a                    55.25468273744286 
_cell_length_b                    56.10894871287166 
_cell_length_c                    25.972697458104587 
_cell_angle_alpha                 90.14604363510742 
_cell_angle_beta                  90.17601703322221 
_cell_angle_gamma                 121.58550223465882 
loop_ 
_atom_site_label 
_atom_site_type_symbol 
_atom_site_fract_x 
_atom_site_fract_y 
_atom_site_fract_z 
_atom_site_charge 
O1          O  0.34235663  0.12877750  0.57227462    -0.87130
O2          O  0.28522799  0.11521820  0.84303733    -0.87290
O3          O  0.33233682  0.08651144  0.73957347    -0.88960
O4          O  0.26417018  0.08633765  0.66885138    -0.87720
O5          O  0.25090310  0.11841715  0.65507322    -0.87310
O6          O  0.37725923  0.11970100  0.76614929    -0.88680
O7          O  0.27844931  0.08400028  0.77963838    -0.87160
O8          O  0.31965121  0.09270958  0.62891162    -0.86740
Zr9        Zr  0.30998102  0.11038530  0.70873564     2.84310
O10         O  0.29158952  0.13549932  0.74662783    -1.08720
O11         O  0.35611992  0.14099217  0.68122759    -1.09450
C12         C  0.33154537  0.10313061  0.58485752     1.05980
C13         C  0.27264805  0.09042653  0.82385129     1.05920
C14         C  0.35656684  0.09397283  0.75955686     1.08910
C15         C  0.24733165  0.09365073  0.65113576     1.06690
H16         H  0.33642640  0.12265823  0.80603146     0.32240
O17         O  0.33727411  0.13545774  0.78032962    -1.30050
H18         H  0.29869652  0.12957152  0.61812776     0.31920
O19         O  0.30954777  0.14023093  0.64766355    -1.31350
O20         O  0.33601715  0.20556642  0.86140261    -0.87120
O21         O  0.38808598  0.21625057  0.58396040    -0.88620
O22         O  0.38897264  0.15878850  0.84080380    -0.87200
O23         O  0.25839534  0.16344375  0.75025444    -0.87250
O24         O  0.28382705  0.16498460  0.59442069    -0.86960
O25         O  0.41814872  0.17182986  0.69207573    -0.86760
O26         O  0.41113139  0.24613321  0.76298685    -0.87140
O27         O  0.34377318  0.24559179  0.68449279    -0.86600
O28         O  0.41638766  0.21152162  0.79746291    -0.87660
O29         O  0.29893087  0.21142671  0.65832644    -0.86820
O30         O  0.35139364  0.15642883  0.88330556    -0.87220
O31         O  0.39877630  0.16891638  0.61185884    -0.86940
O32         O  0.32314880  0.17196437  0.55101121    -0.86590
O33         O  0.27594203  0.16152624  0.82958521    -0.87000
O34         O  0.36151517  0.24098939  0.80405035    -0.87300
O35         O  0.39657732  0.24818388  0.64739152    -0.88630
Zr36       Zr  0.32033109  0.16185380  0.81687062     2.83100
Zr37       Zr  0.35537131  0.17071908  0.61850782     2.83500
Zr38       Zr  0.38352386  0.16643558  0.75269253     2.84090
Zr39       Zr  0.29057749  0.16499640  0.68462789     2.83360
Zr40       Zr  0.36580048  0.22217187  0.72180419     2.84220
O41         O  0.33655905  0.19558987  0.65420962    -1.09200
O42         O  0.36526534  0.19221438  0.78466913    -1.08710
C43         C  0.35041129  0.23165100  0.84880533     1.05950
C44         C  0.40077204  0.24138211  0.60182416     1.08570
C45         C  0.37488905  0.15587867  0.88183755     1.06130
C46         C  0.25761223  0.16269267  0.80000057     1.06490
C47         C  0.29814854  0.16912871  0.55309803     1.06070
C48         C  0.41780775  0.17007584  0.64282720     1.05620
C49         C  0.42187618  0.23704076  0.79547036     1.06050
C50         C  0.32020139  0.23719048  0.66057251     1.05560
H51         H  0.40419978  0.20926168  0.67809062     0.32240
O52         O  0.38476993  0.19672403  0.68850335    -1.30300
H53         H  0.31247671  0.20293310  0.76729448     0.32260
O54         O  0.31973074  0.19192138  0.75337492    -1.31690
C55         C  0.47891230  0.48287100  0.50527548     0.01650
C56         C  0.50144721  0.47782667  0.50272893     0.01650
C57         C  0.03020860  0.00034546  0.50176832     0.01650
C58         C  0.03678064  0.02838672  0.49978691     0.01650
C59         C  0.01375265  0.03314065  0.50046619     0.01650
C60         C  0.48475941  0.01047512  0.50045836     0.01650
C61         C  0.00942799  0.16674742  0.55290277     0.02490
C62         C  0.01183126  0.14323257  0.54864974    -0.13660
C63         C  0.02950364  0.14223206  0.51124256    -0.00010
C64         C  0.04576358  0.16534415  0.47949166    -0.12180
C65         C  0.04331374  0.18879921  0.48428171     0.02480
C66         C  0.02518978  0.18941242  0.52043410    -0.11610
H67         H  0.99891766  0.12516483  0.57272266     0.08080
H68         H  0.05957260  0.16481954  0.45055694     0.05610
H69         H  0.02231411  0.20710660  0.52127566     0.05450
C70         C  0.14732152  0.45463433  0.48736770     0.02490
C71         C  0.16816591  0.97599976  0.51927748    -0.13660
C72         C  0.16405878  0.99710139  0.53874113    -0.00010
C73         C  0.13999305  0.99744684  0.52443720    -0.12180
C74         C  0.11891040  0.97630028  0.49394252     0.02480
C75         C  0.12230274  0.45463554  0.47570008    -0.11610
H76         H  0.18775543  0.97669149  0.52754235     0.08080
H77         H  0.13726927  0.01418293  0.53822933     0.05610
H78         H  0.10597191  0.43829372  0.45157679     0.05450
C79         C  0.35473928  0.03410605  0.45396705     0.02490
C80         C  0.37989830  0.03435574  0.46179727    -0.13660
C81         C  0.38495671  0.01518807  0.43602417    -0.00010
C82         C  0.36397790  0.99622517  0.40029123    -0.12180
C83         C  0.33930799  0.99732297  0.39004998     0.02480
C84         C  0.33546948  0.01680353  0.41660866    -0.11610
H85         H  0.39514991  0.04917742  0.48934580     0.08080
H86         H  0.36627021  0.48025279  0.38168696     0.05610
H87         H  0.31673829  0.01791604  0.40945677     0.05450
C88         C  0.01485015  0.35333809  0.39752224     0.02490
C89         C  0.49700846  0.32855348  0.42535515    -0.13660
C90         C  0.47503190  0.32641238  0.45616214    -0.00010
C91         C  0.47070044  0.34872073  0.45815733    -0.12180
C92         C  0.48977853  0.37431204  0.43482267     0.02480
C93         C  0.01186073  0.37645286  0.40456439    -0.11610
H94         H  0.50040816  0.31122712  0.42357436     0.08080
H95         H  0.45346605  0.34670722  0.48142740     0.05610
H96         H  0.02764295  0.39642741  0.38844432     0.05450
C97         C  0.20172290  0.15352584  0.44799445     0.02490
C98         C  0.17604310  0.12787341  0.45720115    -0.13660
C99         C  0.14939071  0.12470258  0.44523760    -0.00010
C100        C  0.14919464  0.14801933  0.42564180    -0.12180
C101        C  0.17455659  0.17333445  0.41477343     0.02480
C102        C  0.20056977  0.17551509  0.42486537    -0.11610
H103        H  0.17681219  0.11084364  0.47498164     0.08080
H104        H  0.12909444  0.14659774  0.41927064     0.05610
H105        H  0.22021435  0.19486704  0.41632492     0.05450
C106        C  0.33679658  0.33276365  0.54598510     0.02490
C107        C  0.36288796  0.35853540  0.54898503    -0.13660
C108        C  0.36841798  0.38048000  0.51525298    -0.00010
C109        C  0.34720762  0.37694579  0.48096604    -0.12180
C110        C  0.32180999  0.35108431  0.47582689     0.02480
C111        C  0.31705280  0.32889038  0.50783863    -0.11610
H112        H  0.37912447  0.36107549  0.57585116     0.08080
H113        H  0.35107475  0.39424420  0.45657552     0.05610
H114        H  0.29826399  0.30830762  0.50245547     0.05450
O115        O  0.13127073  0.29699931  0.36244058    -0.87130
O116        O  0.11590188  0.32500012  0.08465407    -0.87290
O117        O  0.09335322  0.33028439  0.26075536    -0.88960
O118        O  0.08533781  0.25663563  0.19645700    -0.87720
O119        O  0.11693196  0.24470181  0.16980361    -0.87310
O120        O  0.13010884  0.37582886  0.27206313    -0.88680
O121        O  0.08589626  0.30547202  0.15306779    -0.87160
O122        O  0.09401471  0.28145471  0.30665236    -0.86740
Zr123      Zr  0.11346987  0.30461847  0.22490478     2.84310
O124        O  0.13498442  0.29706448  0.15360090    -1.08720
O125        O  0.14448170  0.34050004  0.28178072    -1.09450
C126        C  0.10487157  0.28166921  0.35087593     1.05980
C127        C  0.09148945  0.31457713  0.10640581     1.05920
C128        C  0.10385550  0.35549168  0.27743159     1.08910
C129        C  0.09125976  0.23957435  0.17511902     1.06690
H130        H  0.12962636  0.35320780  0.17061441     0.32240
O131        O  0.14190059  0.34686177  0.18217397    -1.29670
H132        H  0.13091251  0.27079019  0.27595635     0.31920
O133        O  0.14207427  0.28861859  0.25903938    -1.31350
O134        O  0.20536354  0.36858693  0.06093911    -0.87120
O135        O  0.21939388  0.33865978  0.34203914    -0.88620
O136        O  0.16974314  0.40764127  0.16732916    -0.87200
O137        O  0.15888344  0.26988100  0.09922545    -0.87250
O138        O  0.17276629  0.26150525  0.25882728    -0.86960
O139        O  0.18993973  0.39935577  0.32159139    -0.86760
O140        O  0.25490132  0.40915227  0.22648145    -0.87140
O141        O  0.24714511  0.33485643  0.18119824    -0.86600
O142        O  0.22393443  0.42259424  0.25042279    -0.87660
O143        O  0.21211210  0.28917343  0.16896773    -0.86820
O144        O  0.16079902  0.38113184  0.09365052    -0.87220
O145        O  0.16847633  0.36051616  0.36984003    -0.86940
O146        O  0.17675996  0.28502315  0.33344505    -0.86590
O147        O  0.15795037  0.30315567  0.04975829    -0.87000
O148        O  0.24278819  0.38472462  0.11742104    -0.87300
O149        O  0.24877208  0.35188411  0.27320239    -0.88630
Zr150      Zr  0.16379967  0.33985941  0.11169249     2.83100
Zr151      Zr  0.17326009  0.32596145  0.31375402     2.83500
Zr152      Zr  0.17511368  0.38210756  0.23677453     2.84090
Zr153      Zr  0.16578589  0.28475774  0.18756607     2.83360
Zr154      Zr  0.22546927  0.36082054  0.20092283     2.84220
O155        O  0.17865546  0.32812782  0.22368146    -1.09200
O156        O  0.19798729  0.37671393  0.16526029    -1.08710
C157        C  0.23185787  0.38382948  0.07261765     1.05950
C158        C  0.24297161  0.34522596  0.32107264     1.08570
C159        C  0.16363296  0.40235601  0.11906838     1.06130
C160        C  0.15732767  0.27983441  0.05573102     1.06490
C161        C  0.17480065  0.26424922  0.30799749     1.06070
C162        C  0.17634613  0.38656560  0.36154249     1.05620
C163        C  0.24920014  0.42641218  0.24737597     1.06050
C164        C  0.23829621  0.30975634  0.16727927     1.05560
H165        H  0.21892329  0.38040200  0.29796791     0.32240
O166        O  0.20494359  0.36780126  0.27324466    -1.30300
H167        H  0.20523136  0.32399509  0.11382864     0.32260
O168        O  0.19517448  0.32611982  0.14205558    -1.31690
C169        C  0.44908542  0.13785323  0.01220851     0.02490
C170        C  0.44835299  0.11296095  0.99909284    -0.13660
C171        C  0.46855729  0.10729998  0.01932708    -0.00010
C172        C  0.49013295  0.12709730  0.05154095    -0.12180
C173        C  0.49164352  0.15191777  0.06560968     0.02480
C174        C  0.47059667  0.15686544  0.04679839    -0.11610
H175        H  0.43247341  0.09826064  0.97234076     0.08080
H176        H  0.00627908  0.12321996  0.06544412     0.05610
H177        H  0.47152361  0.17593650  0.05781204     0.05450
C178        C  0.48933973  0.01923140  0.96434433     0.01650
C179        C  0.46704248  0.49103624  0.96537770     0.01650
C180        C  0.47232140  0.46963477  0.97557689     0.01650
C181        C  0.00016914  0.47520884  0.97233631     0.01650
C182        C  0.02292020  0.50315191  0.96503699     0.01650
C183        C  0.01767184  0.02544725  0.96347808     0.01650
C184        C  0.14796664  0.47555644  0.98893816     0.02490
C185        C  0.16797150  0.48841670  0.94976851    -0.13660
C186        C  0.16843160  0.00922533  0.92006729    -0.00010
C187        C  0.14715290  0.01538293  0.92560989    -0.12180
C188        C  0.12509752  0.50058152  0.96084906     0.02480
C189        C  0.12554256  0.48046269  0.99245237    -0.11610
H190        H  0.18491667  0.48422049  0.94561405     0.08080
H191        H  0.14832888  0.03233474  0.90354094     0.05610
H192        H  0.10896583  0.46925148  0.02056537     0.05450
C193        C  0.01467191  0.34033138  0.01136596     0.02490
C194        C  0.49557545  0.31960609  0.97809799    -0.13660
C195        C  0.47946194  0.32474631  0.94423796    -0.00010
C196        C  0.48041748  0.35018027  0.94674693    -0.12180
C197        C  0.49926507  0.37141845  0.98146285     0.02480
C198        C  0.01710733  0.36648318  0.01272913    -0.11610
H199        H  0.49486179  0.29990961  0.97579625     0.08080
H200        H  0.46710349  0.35357077  0.92086876     0.05610
H201        H  0.03338836  0.38302779  0.03655027     0.05450
C202        C  0.14157635  0.18803434  0.93233274     0.02490
C203        C  0.16379690  0.18752974  0.90657072    -0.13660
C204        C  0.16136283  0.16215430  0.89217642    -0.00010
C205        C  0.13540705  0.13708802  0.90003983    -0.12180
C206        C  0.11310187  0.13698577  0.92591998     0.02480
C207        C  0.11647461  0.16235454  0.94305401    -0.11610
H208        H  0.18358540  0.20697716  0.89941611     0.08080
H209        H  0.13276735  0.11744659  0.88730846     0.05610
H210        H  0.09971396  0.16196218  0.96526118     0.05450
C211        C  0.34003372  0.49806326  0.86823257     0.02490
C212        C  0.31339592  0.47993175  0.89098273    -0.13660
C213        C  0.30990083  0.45800749  0.92271364    -0.00010
C214        C  0.33242371  0.45376130  0.92974078    -0.12180
C215        C  0.35896812  0.47247939  0.90928742     0.02480
C216        C  0.36251602  0.49400118  0.87723815    -0.11610
H217        H  0.29626043  0.48382297  0.88657438     0.08080
H218        H  0.32991438  0.43720865  0.95489983     0.05610
H219        H  0.38335662  0.00879413  0.86187771     0.05450
C220        C  0.36243258  0.30878693  0.00973782     0.02490
C221        C  0.33848815  0.30188009  0.03963498    -0.13660
C222        C  0.33688975  0.32279667  0.06628782    -0.00010
C223        C  0.35951601  0.35087861  0.06258324    -0.12180
C224        C  0.38319974  0.35790151  0.03186037     0.02480
C225        C  0.38521176  0.33658240  0.00838333    -0.11610
H226        H  0.32011464  0.28077123  0.03852530     0.08080
H227        H  0.35762774  0.36736183  0.08018821     0.05610
H228        H  0.40343301  0.34205531  0.98439276     0.05450
C229        C  0.43824097  0.48361314  0.95129877    -0.06760
C230        C  0.42010337  0.48210418  0.99013858    -0.17890
C231        C  0.39301560  0.47656723  0.97803113     0.10440
C232        C  0.38411296  0.47217496  0.92593528    -0.06690
C233        C  0.40158112  0.47167587  0.88776498    -0.17920
C234        C  0.42865976  0.47756558  0.89968290     0.10470
S235        S  0.37126891  0.47749182  0.02884982    -0.32890
S236        S  0.44958392  0.97724378  0.84674939    -0.32890
H237        H  0.47636685  0.99653107  0.86730859     0.28480
H238        H  0.38850921  0.47908547  0.07030706     0.28470
H239        H  0.42765620  0.48623301  0.02958867     0.19060
H240        H  0.39453501  0.96803503  0.84794413     0.19070
C241        C  0.04133004  0.05490865  0.95644076    -0.06760
C242        C  0.04616117  0.06603264  0.90660486    -0.17890
C243        C  0.06835941  0.09324579  0.89624554     0.10440
C244        C  0.08673630  0.10989463  0.93642261    -0.06690
C245        C  0.08145739  0.09923940  0.98671536    -0.17920
C246        C  0.05884993  0.07203283  0.99732601     0.10470
S247        S  0.07229063  0.10542677  0.83083089    -0.32890
S248        S  0.05402105  0.06083200  0.06361388    -0.32890
H249        H  0.02807402  0.03539135  0.05846852     0.28480
H250        H  0.08447488  0.13387428  0.84337759     0.28470
H251        H  0.03258399  0.05333015  0.87519824     0.19060
H252        H  0.09549934  0.11198897  0.01773295     0.19070
C253        C  0.05204491  0.50854221  0.96277651    -0.06760
C254        C  0.06488931  0.00854893  0.00938761    -0.17890
C255        C  0.09000480  0.00829438  0.01024301     0.10440
C256        C  0.10157041  0.50598342  0.96333610    -0.06690
C257        C  0.08956137  0.50768426  0.91674657    -0.17920
C258        C  0.06537445  0.50955689  0.91584311     0.10470
S259        S  0.10645696  0.01185338  0.07217184    -0.32890
S260        S  0.05294403  0.51260445  0.85322733    -0.32890
H261        H  0.02700605  0.50918353  0.86790626     0.28480
H262        H  0.13443831  0.02570251  0.05341957     0.28470
H263        H  0.05491426  0.00818229  0.04547188     0.19060
H264        H  0.09852752  0.50659104  0.88041112     0.19070
C265        C  0.50203740  0.39935213  0.98077263    -0.06760
C266        C  0.50215925  0.41080417  0.93275312    -0.17890
C267        C  0.50214548  0.43557050  0.92853325     0.10440
C268        C  0.00450077  0.45105408  0.97341690    -0.06690
C269        C  0.00653718  0.44077205  0.02139990    -0.17920
C270        C  0.50414475  0.41469596  0.02582803     0.10470
S271        S  0.49754953  0.44470815  0.86436098    -0.32890
S272        S  0.00116990  0.40132015  0.09004378    -0.32890
H273        H  0.48109625  0.37337222  0.07689400     0.28480
H274        H  0.48866060  0.46283239  0.87835875     0.28470
H275        H  0.50118449  0.39977250  0.89775205     0.19060
H276        H  0.00797842  0.45224390  0.05600972     0.19070
C277        C  0.40406620  0.38732498  0.01777700    -0.06760
C278        C  0.42074662  0.40659906  0.05628506    -0.17890
C279        C  0.44247187  0.43384064  0.04371992     0.10440
C280        C  0.44856220  0.44157791  0.99131692    -0.06690
C281        C  0.43156998  0.42252380  0.95304521    -0.17920
C282        C  0.40885106  0.39602049  0.96566254     0.10470
S283        S  0.46180320  0.45735691  0.09642170    -0.32890
S284        S  0.38616108  0.37493242  0.91332547    -0.32890
H285        H  0.36132120  0.36033826  0.94282877     0.28480
H286        H  0.47149029  0.48257750  0.07017267     0.28470
H287        H  0.41698978  0.40031150  0.09630267     0.19060
H288        H  0.43569537  0.42854953  0.91298585     0.19070
C289        C  0.48271713  0.04138168  0.97580573    -0.06760
C290        C  0.97950444  0.04597888  0.02772763    -0.17890
C291        C  0.47230904  0.06544584  0.04258399     0.10440
C292        C  0.46920216  0.08186583  0.00488135    -0.06690
C293        C  0.47105183  0.07637039  0.95267385    -0.17920
C294        C  0.47735052  0.05603101  0.93772567     0.10470
S295        S  0.96705799  0.06802545  0.11044456    -0.32890
S296        S  0.47877849  0.04939694  0.87027848    -0.32890
H297        H  0.46806942  0.06565610  0.85180101     0.28480
H298        H  0.94789628  0.07715852  0.10412610     0.28470
H299        H  0.98216449  0.03384880  0.05711654     0.19060
H300        H  0.46866336  0.08882143  0.92366359     0.19070
C301        C  0.15625911  0.26277653  0.01100109    -0.06760
C302        C  0.13089140  0.24655359  0.98305870    -0.17890
C303        C  0.12602696  0.22313933  0.95383976     0.10440
C304        C  0.14651615  0.21505496  0.95411318    -0.06690
C305        C  0.17246107  0.23259344  0.97931409    -0.17920
C306        C  0.17766340  0.25630418  0.00635567     0.10470
S307        S  0.09327728  0.20448871  0.91777346    -0.32890
S308        S  0.21160147  0.27628393  0.03787364    -0.32890
H309        H  0.21187034  0.30141917  0.03884004     0.28480
H310        H  0.10396584  0.19497191  0.87901312     0.28470
H311        H  0.11416106  0.25109438  0.98637615     0.19060
H312        H  0.18860208  0.22716102  0.98023340     0.19070
C313        C  0.26002656  0.30713776  0.13945012    -0.06760
C314        C  0.27044950  0.32373914  0.09508856    -0.17890
C315        C  0.29435866  0.32780297  0.06948502     0.10440
C316        C  0.30956134  0.31611881  0.08960162    -0.06690
C317        C  0.29872826  0.29849924  0.13288709    -0.17920
C318        C  0.27414085  0.29398888  0.15836121     0.10470
S319        S  0.30436649  0.34829056  0.01130002    -0.32890
S320        S  0.26322236  0.27276023  0.21565312    -0.32890
H321        H  0.24213741  0.27776445  0.23224035     0.28480
H322        H  0.31386923  0.33262253  0.98558404     0.28470
H323        H  0.25997261  0.33419781  0.08054710     0.19060
H324        H  0.31010207  0.28910909  0.14804486     0.19070
C325        C  0.06923509  0.31651476  0.07826976    -0.06760
C326        C  0.04673145  0.31466542  0.10727869    -0.17890
C327        C  0.02938496  0.32368129  0.08721134     0.10440
C328        C  0.03467628  0.33488896  0.03747621    -0.06690
C329        C  0.05569354  0.33515670  0.00719176    -0.17920
C330        C  0.07278595  0.32571628  0.02645694     0.10470
S331        S  0.00061833  0.32094669  0.12493255    -0.32890
S332        S  0.09828532  0.32519705  0.98354252    -0.32890
H333        H  0.09544013  0.33996356  0.94264815     0.28480
H334        H  0.50429438  0.30798927  0.16801696     0.28470
H335        H  0.04348993  0.30745091  0.14667815     0.19060
H336        H  0.05805547  0.34212802  0.96765732     0.19070
C337        C  0.06630040  0.21352889  0.15243874    -0.06760
C338        C  0.03871739  0.20598525  0.16830022    -0.17890
C339        C  0.01414908  0.18564543  0.14215033     0.10440
C340        C  0.01666525  0.17295299  0.09711632    -0.06690
C341        C  0.04404409  0.17953384  0.08247488    -0.17920
C342        C  0.06849956  0.19870134  0.11025809     0.10470
S343        S  0.48034238  0.17639439  0.16929904    -0.32890
S344        S  0.10160664  0.20327334  0.08884708    -0.32890
H345        H  0.10925394  0.19905908  0.13821012     0.28480
H346        H  0.46628381  0.14804103  0.15471103     0.28470
H347        H  0.03613023  0.21620393  0.20144034     0.19060
H348        H  0.04650204  0.16957458  0.04877163     0.19070
C349        C  0.25064861  0.40278726  0.03203860    -0.06760
C350        C  0.26936825  0.43094212  0.04498081    -0.17890
C351        C  0.28627834  0.45045193  0.00768605     0.10440
C352        C  0.28516574  0.44169780  0.95624784    -0.06690
C353        C  0.26571768  0.41376608  0.94276764    -0.17920
C354        C  0.24845017  0.39424021  0.97998627     0.10470
S355        S  0.31044290  0.48591779  0.02866586    -0.32890
S356        S  0.22584294  0.35839885  0.95931328    -0.32890
H357        H  0.22946715  0.34690744  0.00454678     0.28480
H358        H  0.30794563  0.49823045  0.98356500     0.28470
H359        H  0.27062788  0.43788057  0.08441106     0.19060
H360        H  0.26552866  0.40669649  0.90380356     0.19070
C361        C  0.15889871  0.42199292  0.09069013    -0.06760
C362        C  0.18223293  0.44827647  0.07877306    -0.17890
C363        C  0.17879419  0.46707433  0.04936796     0.10440
C364        C  0.15177925  0.45839234  0.02747377    -0.06690
C365        C  0.12823253  0.43256191  0.04200970    -0.17920
C366        C  0.13145621  0.41498525  0.07542211     0.10470
S367        S  0.20934070  0.00212898  0.04398902    -0.32890
S368        S  0.09982080  0.38497591  0.09993397    -0.32890
H369        H  0.11132975  0.38447881  0.14796482     0.28480
H370        H  0.19358329  0.01529178  0.04175489     0.28470
H371        H  0.20314073  0.45434145  0.09319767     0.19060
H372        H  0.10721331  0.42606487  0.02764808     0.19070
C373        C  0.30119680  0.34734021  0.43503291    -0.06760
C374        C  0.31132321  0.35801741  0.38543689    -0.17890
C375        C  0.29317076  0.35693321  0.34644836     0.10440
C376        C  0.26389194  0.34463258  0.35676714    -0.06690
C377        C  0.25379069  0.33258986  0.40575891    -0.17920
C378        C  0.27193158  0.33436531  0.44501258     0.10470
S379        S  0.30905066  0.37256396  0.28569039    -0.32890
S380        S  0.25743649  0.32265179  0.50880375    -0.32890
H381        H  0.22862445  0.30685630  0.49423277     0.28480
H382        H  0.29155766  0.34769632  0.25785537     0.28470
H383        H  0.33373005  0.36760359  0.37705951     0.19060
H384        H  0.23146040  0.32268692  0.41469179     0.19070
C385        C  0.17376337  0.19705766  0.39061986    -0.06760
C386        C  0.15624702  0.19135042  0.34738502    -0.17890
C387        C  0.15528266  0.21265138  0.32151879     0.10440
C388        C  0.17353313  0.24092065  0.33696905    -0.06690
C389        C  0.19055226  0.24668992  0.38081995    -0.17920
C390        C  0.19034528  0.22515112  0.40836455     0.10470
S391        S  0.12909860  0.20200449  0.27087561    -0.32890
S392        S  0.21014305  0.23493996  0.46759293    -0.32890
H393        H  0.18941503  0.21095171  0.49373364     0.28480
H394        H  0.12134332  0.22145620  0.28401344     0.28470
H395        H  0.14295670  0.17000040  0.33372776     0.19060
H396        H  0.20389458  0.26810691  0.39409885     0.19070
C397        C  0.08434720  0.35977113  0.30954887    -0.06760
C398        C  0.06528954  0.36574708  0.28579958    -0.17890
C399        C  0.04259820  0.36423178  0.31353349     0.10440
C400        C  0.03879612  0.35636924  0.36609156    -0.06690
C401        C  0.05841348  0.35139350  0.38991399    -0.17920
C402        C  0.08070330  0.35262840  0.36245104     0.10470
S403        S  0.01753786  0.37035608  0.28057478    -0.32890
S404        S  0.10280744  0.34374955  0.39803556    -0.32890
H405        H  0.11148064  0.33416558  0.35668792     0.28480
H406        H  0.03181095  0.37842832  0.23313774     0.28470
H407        H  0.06748581  0.37036972  0.24502399     0.19060
H408        H  0.05595956  0.34584654  0.43033624     0.19070
C409        C  0.31644625  0.47817625  0.35314988    -0.06760
C410        C  0.32305294  0.47731488  0.30120546    -0.17890
C411        C  0.30151045  0.46274495  0.26402478     0.10440
C412        C  0.27253718  0.44908174  0.27855132    -0.06690
C413        C  0.26613265  0.45066614  0.33016699    -0.17920
C414        C  0.28742392  0.46394363  0.36750997     0.10470
S415        S  0.31226037  0.46253352  0.19862090    -0.32890
S416        S  0.27586794  0.46005680  0.43354745    -0.32890
H417        H  0.29981438  0.46090918  0.45451330     0.28480
H418        H  0.28723322  0.45842624  0.17575642     0.28470
H419        H  0.34508766  0.48849180  0.28933178     0.19060
H420        H  0.24421036  0.43924137  0.34267845     0.19070
C421        C  0.15377138  0.43568835  0.45828732    -0.06760
C422        C  0.15795262  0.44048372  0.40564842    -0.17890
C423        C  0.16557027  0.42528558  0.37416781     0.10440
C424        C  0.16860291  0.40338809  0.39555458    -0.06690
C425        C  0.16413040  0.39838300  0.44882070    -0.17920
C426        C  0.15694328  0.41439237  0.48034949     0.10470
S427        S  0.17067798  0.43486163  0.30648401    -0.32890
S428        S  0.15187824  0.40650185  0.54806972    -0.32890
H429        H  0.13397293  0.41685201  0.55720014     0.28480
H430        H  0.16883418  0.45889034  0.30941321     0.28470
H431        H  0.15554671  0.45684740  0.38917413     0.19060
H432        H  0.16633334  0.38204429  0.46600855     0.19070
C433        C  0.05814610  0.21254761  0.45002170    -0.06760
C434        C  0.08110237  0.23711084  0.47025017    -0.17890
C435        C  0.09527967  0.26120886  0.44070224     0.10440
C436        C  0.08654036  0.26049122  0.38890019    -0.06690
C437        C  0.06241836  0.23601197  0.36998223    -0.17920
C438        C  0.04804283  0.21212585  0.40008799     0.10470
S439        S  0.12435571  0.29152852  0.47204387    -0.32890
S440        S  0.01757749  0.18169451  0.37192579    -0.32890
H441        H  0.00255223  0.17039044  0.41785822     0.28480
H442        H  0.11975235  0.31081691  0.44676854     0.28470
H443        H  0.08791654  0.23748788  0.50961612     0.19060
H444        H  0.05535962  0.23486741  0.33058532     0.19070
C445        C  0.39666666  0.40674227  0.51270250    -0.06760
C446        C  0.40755933  0.42386459  0.55645847    -0.17890
C447        C  0.43356835  0.44946936  0.55509209     0.10440
C448        C  0.44901362  0.45853732  0.50828692    -0.06690
C449        C  0.43719778  0.44205179  0.46396292    -0.17920
C450        C  0.41194344  0.41601165  0.46597357     0.10470
S451        S  0.44558227  0.46840005  0.61530538    -0.32890
S452        S  0.40138141  0.39495372  0.40813833    -0.32890
H453        H  0.38917574  0.36908868  0.43354065     0.28480
H454        H  0.47394062  0.48721386  0.60198968     0.28470
H455        H  0.39575240  0.41712028  0.59214447     0.19060
H456        H  0.44870804  0.44881193  0.42798993     0.19070
C457        C  0.02934475  0.11618746  0.50469562    -0.06760
C458        C  0.03580505  0.10562452  0.54776021    -0.17890
C459        C  0.03092949  0.07868882  0.54768564     0.10440
C460        C  0.02012393  0.06211688  0.50255003    -0.06690
C461        C  0.01510708  0.07325536  0.45843515    -0.17920
C462        C  0.01913741  0.10001883  0.45924658     0.10470
S463        S  0.53763536  0.06700542  0.60781298    -0.32890
S464        S  0.00911146  0.11232045  0.40372481    -0.32890
H465        H  0.99976575  0.08842041  0.37275031     0.28480
H466        H  0.52248770  0.03817691  0.59786472     0.28470
H467        H  0.04339803  0.11806423  0.58274010     0.19060
H468        H  0.00727612  0.06057222  0.42386855     0.19070
C469        C  0.12151539  0.09813059  0.45665434    -0.06760
C470        C  0.11745628  0.08547349  0.50500815    -0.17890
C471        C  0.09086398  0.06280613  0.52049808     0.10440
C472        C  0.06674497  0.05226857  0.48724411    -0.06690
C473        C  0.07124179  0.06428277  0.43801176    -0.17920
C474        C  0.09803287  0.08635313  0.42210266     0.10470
S475        S  0.09030890  0.04944865  0.58361286    -0.32890
S476        S  0.10091878  0.09748700  0.35612471    -0.32890
H477        H  0.12950803  0.10547654  0.35037080     0.28480
H478        H  0.06106789  0.03467193  0.58897656     0.28470
H479        H  0.13508662  0.09391315  0.53196030     0.19060
H480        H  0.05364103  0.05589227  0.41098800     0.19070
C481        C  0.41110342  0.01439026  0.45070195    -0.06760
C482        C  0.41996366  0.01908748  0.50272077    -0.17890
C483        C  0.44479913  0.02044220  0.51965728     0.10440
C484        C  0.46063601  0.01439512  0.48494616    -0.06690
C485        C  0.45179602  0.00940688  0.43299707    -0.17920
C486        C  0.42819404  0.01041485  0.41524813     0.10470
S487        S  0.45477508  0.03126786  0.58556657    -0.32890
S488        S  0.42243688  0.00821125  0.34665101    -0.32890
H489        H  0.41373059  0.02769886  0.34555403     0.28480
H490        H  0.47903548  0.02983969  0.58596118     0.28470
H491        H  0.40749972  0.02207788  0.53117284     0.19060
H492        H  0.46391437  0.00526072  0.40557792     0.19070
C493        C  0.05292658  0.99358846  0.49923742    -0.06760
C494        C  0.06762003  0.99784471  0.45276171    -0.17890
C495        C  0.08779278  0.99002455  0.44735924     0.10440
C496        C  0.09245435  0.97643770  0.48845576    -0.06690
C497        C  0.07670874  0.47092211  0.53362536    -0.17920
C498        C  0.05798595  0.48018768  0.54039365     0.10470
S499        S  0.10815649  0.99969746  0.38880818    -0.32890
S500        S  0.04424544  0.47660016  0.60474373    -0.32890
H501        H  0.02936324  0.49025399  0.59790846     0.28480
H502        H  0.11525646  0.97909598  0.39125404     0.28470
H503        H  0.06357584  0.00763035  0.42071407     0.19060
H504        H  0.08124932  0.46172103  0.56609960     0.19070
C505        C  0.48926671  0.39956811  0.44974514    -0.06760
C506        C  0.48476568  0.40275997  0.50189985    -0.17890
C507        C  0.48647026  0.42686482  0.52038001     0.10440
C508        C  0.49518936  0.44966494  0.48665632    -0.06690
C509        C  0.99867734  0.44619484  0.43412994    -0.17920
C510        C  0.99482813  0.42116899  0.41502874     0.10470
S511        S  0.47662825  0.42579732  0.58675955    -0.32890
S512        S  0.99605093  0.41790528  0.34614848    -0.32890
H513        H  0.97701648  0.38876653  0.34473760     0.28480
H514        H  0.48487666  0.45370013  0.59083693     0.28470
H515        H  0.48037135  0.38646157  0.52929263     0.19060
H516        H  0.00405166  0.46314578  0.40760910     0.19070
C517        C  0.18623342  0.16204527  0.86987829    -0.06760
C518        C  0.20113882  0.18034402  0.82920257    -0.17890
C519        C  0.22496736  0.18169483  0.80729025     0.10440
C520        C  0.23384929  0.16355158  0.82472781    -0.06690
C521        C  0.21920452  0.14541263  0.86568037    -0.17920
C522        C  0.19592823  0.14474048  0.88887819     0.10470
S523        S  0.24385743  0.20801563  0.75882228    -0.32890
S524        S  0.18050479  0.12215411  0.94384079    -0.32890
H525        H  0.17465704  0.14026648  0.97104918     0.28480
H526        H  0.27107053  0.21454219  0.77454007     0.28470
H527        H  0.19435108  0.19401825  0.81464233     0.19060
H528        H  0.22598624  0.13165766  0.87984954     0.19070
C529        C  0.36122281  0.28896444  0.97057808    -0.06760
C530        C  0.36592138  0.29787832  0.91918215    -0.17890
C531        C  0.36313509  0.28019526  0.87873938     0.10440
C532        C  0.35472561  0.25217232  0.88962925    -0.06690
C533        C  0.35021122  0.24329947  0.94144609    -0.17920
C534        C  0.35375159  0.26140584  0.98184963     0.10470
S535        S  0.36873262  0.29391811  0.81393577    -0.32890
S536        S  0.34899185  0.24822514  0.04664629    -0.32890
H537        H  0.36800109  0.27416448  0.06992655     0.28480
H538        H  0.38218025  0.32241413  0.82730213     0.28470
H539        H  0.37083682  0.31871528  0.91035683     0.19060
H540        H  0.34427584  0.22212706  0.95093779     0.19070
C541        C  0.44099481  0.16840003  0.62126203    -0.06760
C542        C  0.46871263  0.19074795  0.63025763    -0.17890
C543        C  0.49188617  0.18954132  0.61320339     0.10440
C544        C  0.48704918  0.16609849  0.58412848    -0.06690
C545        C  0.45928605  0.14312450  0.57789415    -0.17920
C546        C  0.43630554  0.14366033  0.59791770     0.10470
S547        S  0.02689014  0.21823459  0.63031781    -0.32890
S548        S  0.40198052  0.11178505  0.59446144    -0.32890
H549        H  0.39090785  0.11606707  0.63980689     0.28480
H550        H  0.04022276  0.20271102  0.62751541     0.28470
H551        H  0.47227837  0.20903216  0.65134913     0.19060
H552        H  0.45534436  0.12483225  0.55640086     0.19070
C553        C  0.45807335  0.30268120  0.49148316    -0.06760
C554        C  0.46494825  0.30674247  0.54428680    -0.17890
C555        C  0.44705094  0.28729719  0.58132588     0.10440
C556        C  0.42111754  0.26336189  0.56565311    -0.06690
C557        C  0.41462458  0.25927225  0.51256280    -0.17920
C558        C  0.43257194  0.27855778  0.47566240     0.10470
S559        S  0.45893740  0.29393705  0.64739443    -0.32890
S560        S  0.42062491  0.27210854  0.40956183    -0.32890
H561        H  0.44767114  0.28580085  0.38711907     0.28480
H562        H  0.44985251  0.26592304  0.65834833     0.28470
H563        H  0.48429596  0.32552248  0.55681360     0.19060
H564        H  0.39497600  0.24100808  0.49951260     0.19070
C565        C  0.46395123  0.30353516  0.90429848    -0.06760
C566        C  0.44194089  0.27742233  0.92053609    -0.17890
C567        C  0.42929057  0.25455045  0.88724572     0.10440
C568        C  0.43915343  0.25752479  0.83579107    -0.06690
C569        C  0.46140340  0.28388868  0.81969855    -0.17920
C570        C  0.47420273  0.30675079  0.85355059     0.10470
S571        S  0.39996281  0.22326757  0.91420173    -0.32890
S572        S  0.00347408  0.33932660  0.82977802    -0.32890
H573        H  0.01930714  0.34765245  0.87580684     0.28480
H574        H  0.38610122  0.21118636  0.86821815     0.28470
H575        H  0.43464269  0.27484748  0.96002339     0.19060
H576        H  0.46847134  0.28680091  0.78006205     0.19070
C577        C  0.42843325  0.14443875  0.98715964    -0.06760
C578        C  0.39922171  0.12364292  0.98339467    -0.17890
C579        C  0.37986808  0.12768608  0.95445857     0.10440
C580        C  0.38939385  0.15334102  0.92881869    -0.06690
C581        C  0.41828035  0.17440049  0.93485016    -0.17920
C582        C  0.43769670  0.17038822  0.96286363     0.10470
S583        S  0.34416362  0.09827593  0.94688575    -0.32890
S584        S  0.47494861  0.19738359  0.95976718    -0.32890
H585        H  0.47120779  0.21898056  0.94232586     0.28480
H586        H  0.33187452  0.11451508  0.94088497     0.28470
H587        H  0.39155362  0.10359986  0.00161550     0.19060
H588        H  0.42658701  0.19324417  0.91232050     0.19070
C589        C  0.31996951  0.25884858  0.62829625    -0.06760
C590        C  0.30979271  0.27527657  0.64814853    -0.17890
C591        C  0.31508705  0.29974773  0.62270540     0.10440
C592        C  0.33146424  0.30832936  0.57704737    -0.06690
C593        C  0.34097633  0.29160612  0.55692461    -0.17920
C594        C  0.33526840  0.26708524  0.58138712     0.10470
S595        S  0.30043123  0.31896625  0.65047523    -0.32890
S596        S  0.34888928  0.24786148  0.55009807    -0.32890
H597        H  0.33341116  0.22314649  0.57777654     0.28480
H598        H  0.31937526  0.34492525  0.62790916     0.28470
H599        H  0.29845789  0.26952024  0.68435664     0.19060
H600        H  0.35282466  0.29762943  0.52121664     0.19070
C601        C  0.28352601  0.17265853  0.50801889    -0.06760
C602        C  0.27220893  0.18939356  0.51956904    -0.17890
C603        C  0.24473860  0.18143662  0.50468683     0.10440
C604        C  0.22977137  0.15962569  0.46850096    -0.06690
C605        C  0.24311849  0.14576616  0.44954742    -0.17920
C606        C  0.26977573  0.15197848  0.46930034     0.10470
S607        S  0.22851094  0.19697906  0.54042482    -0.32890
S608        S  0.28562244  0.13365050  0.44302736    -0.32890
H609        H  0.31349252  0.15357759  0.45861917     0.28480
H610        H  0.20079249  0.17333027  0.53911825     0.28470
H611        H  0.28234990  0.20538090  0.54916987     0.19060
H612        H  0.23262967  0.12986253  0.42000065     0.19070
C613        C  0.34601552  0.02322969  0.83957297    -0.06760
C614        C  0.33642656  0.02011422  0.78871158    -0.17890
C615        C  0.34288629  0.04352329  0.75896083     0.10440
C616        C  0.35854914  0.07066020  0.78114569    -0.06690
C617        C  0.36999095  0.07380689  0.83073984    -0.17920
C618        C  0.36394270  0.05041909  0.86005281     0.10470
S619        S  0.33127006  0.03858653  0.69251499    -0.32890
S620        S  0.37918505  0.05659128  0.92379192    -0.32890
H621        H  0.35688892  0.03223856  0.94630171     0.28480
H622        H  0.31753042  0.00924233  0.69138414     0.28470
H623        H  0.32406948  0.99929071  0.77231444     0.19060
H624        H  0.38200186  0.09441109  0.84823722     0.19070
C625        C  0.24810846  0.06824263  0.85287685    -0.06760
C626        C  0.23088777  0.04184834  0.82927528    -0.17890
C627        C  0.20438940  0.02213987  0.84943889     0.10440
C628        C  0.19474400  0.02899259  0.89383468    -0.06690
C629        C  0.21214255  0.05453504  0.91872430    -0.17920
C630        C  0.23884672  0.07386674  0.89992864     0.10470
S631        S  0.18375295  0.48906437  0.81630091    -0.32890
S632        S  0.25955536  0.10463160  0.93944386    -0.32890
H633        H  0.28416542  0.10323955  0.93637477     0.28480
H634        H  0.15696397  0.48324828  0.83259578     0.28470
H635        H  0.23749676  0.03677680  0.79378976     0.19060
H636        H  0.20511509  0.05907547  0.95437756     0.19070
C637        C  0.18544948  0.02072329  0.57044404    -0.06760
C638        C  0.21170722  0.03911598  0.54811660    -0.17890
C639        C  0.23093012  0.06441195  0.57199062     0.10440
C640        C  0.22417302  0.07184492  0.61953083    -0.06690
C641        C  0.19792235  0.05342896  0.64221708    -0.17920
C642        C  0.17850076  0.02793680  0.61824131     0.10470
S643        S  0.26445676  0.08610047  0.54087239    -0.32890
S644        S  0.14566168  0.00506576  0.65137888    -0.32890
H645        H  0.14118324  0.98001169  0.62994930     0.28480
H646        H  0.26469379  0.11072636  0.55179464     0.28470
H647        H  0.21696051  0.03411078  0.51104905     0.19060
H648        H  0.19314876  0.05823568  0.67989263     0.19070
C649        C  0.33471050  0.08494358  0.54684510    -0.06760
C650        C  0.32321295  0.05659381  0.55887647    -0.17890
C651        C  0.32965931  0.03966180  0.52970842     0.10440
C652        C  0.34762883  0.05100648  0.48660387    -0.06690
C653        C  0.35769717  0.07855066  0.47227381    -0.17920
C654        C  0.35149738  0.09563023  0.50133363     0.10470
S655        S  0.31427734  0.00382501  0.54984959    -0.32890
S656        S  0.36649050  0.13078767  0.47762371    -0.32890
H657        H  0.38707201  0.14244628  0.51701478     0.28480
H658        H  0.33568649  0.99991087  0.53067532     0.28470
H659        H  0.30975500  0.04762762  0.59225391     0.19060
H660        H  0.37078580  0.08691654  0.43822137     0.19070
O661        O  0.34235658  0.62877751  0.57227465    -0.87130
O662        O  0.28522799  0.61521822  0.84303740    -0.87290
O663        O  0.33233677  0.58651143  0.73957353    -0.88960
O664        O  0.26417014  0.58633768  0.66885146    -0.87720
O665        O  0.25090306  0.61841718  0.65507333    -0.87310
O666        O  0.37725919  0.61970099  0.76614933    -0.88680
O667        O  0.27844931  0.58400030  0.77963844    -0.87160
O668        O  0.31965118  0.59270960  0.62891165    -0.86740
Zr669      Zr  0.30998100  0.61038532  0.70873569     2.84310
O670        O  0.29158951  0.63549935  0.74662791    -1.08720
O671        O  0.35611989  0.64099218  0.68122759    -1.09450
C672        C  0.33154533  0.60313063  0.58485755     1.05980
C673        C  0.27264805  0.59042656  0.82385134     1.05920
C674        C  0.35656679  0.59397282  0.75955692     1.08910
C675        C  0.24733161  0.59365076  0.65113586     1.06690
H676        H  0.33642639  0.62265825  0.80603148     0.32240
O677        O  0.33727410  0.63545776  0.78032965    -1.30050
H678        H  0.29869647  0.62957154  0.61812785     0.31920
O679        O  0.30954773  0.64023095  0.64766363    -1.31350
O680        O  0.33601716  0.70556645  0.86140267    -0.87120
O681        O  0.38808591  0.71625058  0.58396040    -0.88620
O682        O  0.38897263  0.65878849  0.84080375    -0.87200
O683        O  0.25839532  0.66344377  0.75025458    -0.87250
O684        O  0.28382700  0.66498462  0.59442079    -0.86960
O685        O  0.41814869  0.67182988  0.69207568    -0.86760
O686        O  0.41113138  0.74613323  0.76298687    -0.87140
O687        O  0.34377317  0.74559182  0.68449285    -0.86600
O688        O  0.41638763  0.71152163  0.79746296    -0.87660
O689        O  0.29893085  0.71142675  0.65832652    -0.86820
O690        O  0.35139367  0.65642886  0.88330557    -0.87220
O691        O  0.39877626  0.66891642  0.61185882    -0.86940
O692        O  0.32314873  0.67196436  0.55101127    -0.86590
O693        O  0.27594204  0.66152627  0.82958533    -0.87000
O694        O  0.36151518  0.74098942  0.80405039    -0.87300
O695        O  0.39657729  0.74818389  0.64739154    -0.88630
Zr696      Zr  0.32033109  0.66185383  0.81687069     2.83100
Zr697      Zr  0.35537126  0.67071909  0.61850785     2.83500
Zr698      Zr  0.38352385  0.66643559  0.75269251     2.84090
Zr699      Zr  0.29057746  0.66499643  0.68462799     2.83360
Zr700      Zr  0.36580046  0.72217188  0.72180423     2.84220
O701        O  0.33655901  0.69558988  0.65420968    -1.09200
O702        O  0.36526533  0.69221439  0.78466914    -1.08710
C703        C  0.35041130  0.73165103  0.84880537     1.05950
C704        C  0.40077199  0.74138212  0.60182417     1.08570
C705        C  0.37488907  0.65587868  0.88183751     1.06130
C706        C  0.25761223  0.66269270  0.80000072     1.06490
C707        C  0.29814847  0.66912870  0.55309811     1.06070
C708        C  0.41780772  0.67007588  0.64282715     1.05620
C709        C  0.42187616  0.73704077  0.79547041     1.06050
C710        C  0.32020138  0.73719051  0.66057257     1.05560
H711        H  0.40419975  0.70926169  0.67809061     0.32240
O712        O  0.38476990  0.69672404  0.68850336    -1.30300
H713        H  0.31247671  0.70293313  0.76729457     0.32260
O714        O  0.31973073  0.69192140  0.75337500    -1.31690
C715        C  0.47891238  0.98287099  0.50527551     0.01650
C716        C  0.50144728  0.97782664  0.50272898     0.01650
C717        C  0.03020851  0.50034548  0.50176828     0.01650
C718        C  0.03678054  0.52838674  0.49978686     0.01650
C719        C  0.01375254  0.53314065  0.50046613     0.01650
C720        C  0.48475932  0.51047513  0.50045833     0.01650
C721        C  0.00942789  0.66674744  0.55290275     0.02490
C722        C  0.01183115  0.64323259  0.54864973    -0.13660
C723        C  0.02950352  0.64223205  0.51124256    -0.00010
C724        C  0.04576347  0.66534414  0.47949166    -0.12180
C725        C  0.04331365  0.68879921  0.48428170     0.02480
C726        C  0.02518969  0.68941244  0.52043407    -0.11610
H727        H  0.99891753  0.62516484  0.57272265     0.08080
H728        H  0.05957249  0.66481952  0.45055695     0.05610
H729        H  0.02231403  0.70710662  0.52127562     0.05450
C730        C  0.14732157  0.95463427  0.48736768     0.02490
C731        C  0.16816586  0.47599981  0.51927752    -0.13660
C732        C  0.16405873  0.49710143  0.53874122    -0.00010
C733        C  0.13999299  0.49744687  0.52443730    -0.12180
C734        C  0.11891035  0.47630033  0.49394259     0.02480
C735        C  0.12230279  0.95463548  0.47570005    -0.11610
H736        H  0.18775538  0.47669154  0.52754239     0.08080
H737        H  0.13726921  0.51418296  0.53822946     0.05610
H738        H  0.10597195  0.93829365  0.45157678     0.05450
C739        C  0.35473921  0.53410607  0.45396701     0.02490
C740        C  0.37989822  0.53435575  0.46179723    -0.13660
C741        C  0.38495663  0.51518808  0.43602413    -0.00010
C742        C  0.36397782  0.49622519  0.40029117    -0.12180
C743        C  0.33930791  0.49732300  0.39004991     0.02480
C744        C  0.33546941  0.51680356  0.41660860    -0.11610
H745        H  0.39514982  0.54917742  0.48934578     0.08080
H746        H  0.36627029  0.98025277  0.38168702     0.05610
H747        H  0.31673822  0.51791608  0.40945671     0.05450
C748        C  0.01485016  0.85333803  0.39752237     0.02490
C749        C  0.49700847  0.82855344  0.42535523    -0.13660
C750        C  0.47503190  0.82641234  0.45616216    -0.00010
C751        C  0.47070045  0.84872069  0.45815733    -0.12180
C752        C  0.48977856  0.87431200  0.43482272     0.02480
C753        C  0.01186075  0.87645281  0.40456451    -0.11610
H754        H  0.50040817  0.81122707  0.42357444     0.08080
H755        H  0.45346605  0.84670718  0.48142735     0.05610
H756        H  0.02764297  0.89642736  0.38844444     0.05450
C757        C  0.20172283  0.65352576  0.44799432     0.02490
C758        C  0.17604301  0.62787334  0.45720104    -0.13660
C759        C  0.14939064  0.62470253  0.44523743    -0.00010
C760        C  0.14919460  0.64801928  0.42564154    -0.12180
C761        C  0.17455657  0.67333438  0.41477315     0.02480
C762        C  0.20056973  0.67551500  0.42486517    -0.11610
H763        H  0.17681208  0.61084358  0.47498162     0.08080
H764        H  0.12909441  0.64659771  0.41927034     0.05610
H765        H  0.22021432  0.69486694  0.41632471     0.05450
C766        C  0.33679661  0.83276368  0.54598508     0.02490
C767        C  0.36288798  0.85853543  0.54898503    -0.13660
C768        C  0.36841801  0.88048002  0.51525297    -0.00010
C769        C  0.34720767  0.87694582  0.48096600    -0.12180
C770        C  0.32181003  0.85108434  0.47582684     0.02480
C771        C  0.31705283  0.82889040  0.50783858    -0.11610
H772        H  0.37912448  0.86107552  0.57585118     0.08080
H773        H  0.35107480  0.89424423  0.45657547     0.05610
H774        H  0.29826403  0.80830765  0.50245541     0.05450
O775        O  0.13127077  0.79699924  0.36244050    -0.87130
O776        O  0.11590187  0.82500022  0.08465414    -0.87290
O777        O  0.09335325  0.83028438  0.26075545    -0.88960
O778        O  0.08533784  0.75663565  0.19645693    -0.87720
O779        O  0.11693198  0.74470184  0.16980347    -0.87310
O780        O  0.13010887  0.87582884  0.27206330    -0.88680
O781        O  0.08589626  0.80547207  0.15306785    -0.87160
O782        O  0.09401473  0.78145470  0.30665234    -0.86740
Zr783      Zr  0.11346989  0.80461848  0.22490477     2.84310
O784        O  0.13498442  0.79706453  0.15360084    -1.08720
O785        O  0.14448173  0.84050002  0.28178075    -1.09450
C786        C  0.10487160  0.78166917  0.35087588     1.05980
C787        C  0.09148944  0.81457721  0.10640589     1.05920
C788        C  0.10385553  0.85549167  0.27743173     1.08910
C789        C  0.09125978  0.73957437  0.17511892     1.06690
H790        H  0.12962637  0.85320785  0.17061453     0.32240
O791        O  0.14190060  0.84686180  0.18217404    -1.29670
H792        H  0.13091253  0.77079017  0.27595621     0.31920
O793        O  0.14207429  0.78861858  0.25903926    -1.31350
O794        O  0.20536351  0.86858701  0.06093911    -0.87120
O795        O  0.21939391  0.83865973  0.34203903    -0.88620
O796        O  0.16974316  0.90764133  0.16732936    -0.87200
O797        O  0.15888339  0.76988105  0.09922527    -0.87250
O798        O  0.17276634  0.76150525  0.25882701    -0.86960
O799        O  0.18993982  0.89935570  0.32159151    -0.86760
O800        O  0.25490135  0.90915227  0.22648146    -0.87140
O801        O  0.24714514  0.83485645  0.18119805    -0.86600
O802        O  0.22393447  0.92259424  0.25042292    -0.87660
O803        O  0.21211211  0.78917346  0.16896747    -0.86820
O804        O  0.16079901  0.88113193  0.09365067    -0.87220
O805        O  0.16847635  0.86051607  0.36984006    -0.86940
O806        O  0.17675999  0.78502310  0.33344484    -0.86590
O807        O  0.15795030  0.80315574  0.04975821    -0.87000
O808        O  0.24278817  0.88472468  0.11742099    -0.87300
O809        O  0.24877212  0.85188412  0.27320228    -0.88630
Zr810      Zr  0.16379966  0.83985948  0.11169250     2.83100
Zr811      Zr  0.17326012  0.82596140  0.31375395     2.83500
Zr812      Zr  0.17511371  0.88210757  0.23677463     2.84090
Zr813      Zr  0.16578591  0.78475777  0.18756590     2.83360
Zr814      Zr  0.22546929  0.86082056  0.20092275     2.84220
O815        O  0.17865549  0.82812783  0.22368139    -1.09200
O816        O  0.19798730  0.87671397  0.16526033    -1.08710
C817        C  0.23185784  0.88382956  0.07261762     1.05950
C818        C  0.24297165  0.84522594  0.32107252     1.08570
C819        C  0.16363297  0.90235608  0.11906858     1.06130
C820        C  0.15732759  0.77983447  0.05573088     1.06490
C821        C  0.17480069  0.76424918  0.30799722     1.06070
C822        C  0.17634618  0.88656552  0.36154257     1.05620
C823        C  0.24920017  0.92641217  0.24737605     1.06050
C824        C  0.23829622  0.80975637  0.16727905     1.05560
H825        H  0.21892334  0.88040196  0.29796789     0.32240
O826        O  0.20494362  0.86780123  0.27324464    -1.30300
H827        H  0.20523136  0.82399516  0.11382849     0.32260
O828        O  0.19517448  0.82611987  0.14205546    -1.31690
C829        C  0.44908559  0.63785328  0.01220802     0.02490
C830        C  0.44835313  0.61296097  0.99909248    -0.13660
C831        C  0.46855743  0.60730001  0.01932675    -0.00010
C832        C  0.49013313  0.62709737  0.05154052    -0.12180
C833        C  0.49164373  0.65191787  0.06560913     0.02480
C834        C  0.47059689  0.65686553  0.04679779    -0.11610
H835        H  0.43247351  0.59826062  0.97234049     0.08080
H836        H  0.00627912  0.62321996  0.06544403     0.05610
H837        H  0.47152384  0.67593662  0.05781135     0.05450
C838        C  0.48933978  0.51923130  0.96434476     0.01650
C839        C  0.46704244  0.99103634  0.96537750     0.01650
C840        C  0.47232139  0.96963490  0.97557664     0.01650
C841        C  0.00016920  0.97520893  0.97233615     0.01650
C842        C  0.02292024  0.00315200  0.96503677     0.01650
C843        C  0.01767183  0.52544718  0.96347834     0.01650
C844        C  0.14796666  0.97555652  0.98893834     0.02490
C845        C  0.16797152  0.98841675  0.94976869    -0.13660
C846        C  0.16843159  0.50922532  0.92006721    -0.00010
C847        C  0.14715289  0.51538291  0.92560989    -0.12180
C848        C  0.12509753  0.00058157  0.96084907     0.02480
C849        C  0.12554258  0.98046277  0.99245247    -0.11610
H850        H  0.18491670  0.98422054  0.94561430     0.08080
H851        H  0.14832887  0.53233475  0.90354102     0.05610
H852        H  0.10896584  0.96925158  0.02056548     0.05450
C853        C  0.01467183  0.84033142  0.01136614     0.02490
C854        C  0.49557526  0.81960614  0.97809822    -0.13660
C855        C  0.47946178  0.82474634  0.94423809    -0.00010
C856        C  0.48041733  0.85018031  0.94674695    -0.12180
C857        C  0.49926491  0.87141851  0.98146284     0.02480
C858        C  0.01710728  0.86648322  0.01272923    -0.11610
H859        H  0.49486161  0.79990966  0.97579656     0.08080
H860        H  0.46710337  0.85357081  0.92086870     0.05610
H861        H  0.03338831  0.88302784  0.03655033     0.05450
C862        C  0.14157632  0.68803430  0.93233310     0.02490
C863        C  0.16379686  0.68752971  0.90657100    -0.13660
C864        C  0.16136285  0.66215428  0.89217686    -0.00010
C865        C  0.13540712  0.63708798  0.90004044    -0.12180
C866        C  0.11310194  0.63698571  0.92592062     0.02480
C867        C  0.11647464  0.66235447  0.94305458    -0.11610
H868        H  0.18358531  0.70697714  0.89941620     0.08080
H869        H  0.13276745  0.61744655  0.88730912     0.05610
H870        H  0.09971400  0.66196210  0.96526181     0.05450
C871        C  0.34003368  0.99806330  0.86823258     0.02490
C872        C  0.31339587  0.97993183  0.89098275    -0.13660
C873        C  0.30990076  0.95800757  0.92271368    -0.00010
C874        C  0.33242363  0.95376135  0.92974084    -0.12180
C875        C  0.35896803  0.97247941  0.90928746     0.02480
C876        C  0.36251596  0.99400120  0.87723818    -0.11610
H877        H  0.29626041  0.98382307  0.88657438     0.08080
H878        H  0.32991427  0.93720870  0.95489990     0.05610
H879        H  0.38335668  0.50879413  0.86187770     0.05450
C880        C  0.36243268  0.80878703  0.00973781     0.02490
C881        C  0.33848825  0.80188019  0.03963499    -0.13660
C882        C  0.33688983  0.82279676  0.06628779    -0.00010
C883        C  0.35951608  0.85087871  0.06258316    -0.12180
C884        C  0.38319980  0.85790162  0.03186028     0.02480
C885        C  0.38521184  0.83658251  0.00838327    -0.11610
H886        H  0.32011476  0.78077132  0.03852535     0.08080
H887        H  0.35762779  0.86736193  0.08018809     0.05610
H888        H  0.40343308  0.84205542  0.98439268     0.05450
C889        C  0.43824091  0.98361322  0.95129865    -0.06760
C890        C  0.42010331  0.98210420  0.99013851    -0.17890
C891        C  0.39301552  0.97656721  0.97803113     0.10440
C892        C  0.38411286  0.97217496  0.92593528    -0.06690
C893        C  0.40158102  0.97167590  0.88776494    -0.17920
C894        C  0.42865969  0.97756568  0.89968279     0.10470
S895        S  0.37126884  0.97749176  0.02884988    -0.32890
S896        S  0.44958398  0.47724359  0.84674959    -0.32890
H897        H  0.47636690  0.49653093  0.86730877     0.28480
H898        H  0.38850918  0.97908546  0.07030707     0.28470
H899        H  0.42765615  0.98623302  0.02958859     0.19060
H900        H  0.39453512  0.46803499  0.84794416     0.19070
C901        C  0.04133005  0.55490858  0.95644114    -0.06760
C902        C  0.04616121  0.56603263  0.90660529    -0.17890
C903        C  0.06835948  0.59324578  0.89624606     0.10440
C904        C  0.08673637  0.60989456  0.93642319    -0.06690
C905        C  0.08145743  0.59923928  0.98671590    -0.17920
C906        C  0.05884994  0.57203270  0.99732644     0.10470
S907        S  0.07229073  0.60542685  0.83083148    -0.32890
S908        S  0.05402101  0.56083179  0.06361426    -0.32890
H909        H  0.02807394  0.53539119  0.05846882     0.28480
H910        H  0.08447496  0.63387434  0.84337830     0.28470
H911        H  0.03258405  0.55333019  0.87519862     0.19060
H912        H  0.09549938  0.61198880  0.01773353     0.19070
C913        C  0.05204495  0.00854231  0.96277633    -0.06760
C914        C  0.06488927  0.50854879  0.00938776    -0.17890
C915        C  0.09000477  0.50829426  0.01024311     0.10440
C916        C  0.10157043  0.00598348  0.96333604    -0.06690
C917        C  0.08956140  0.00768429  0.91674648    -0.17920
C918        C  0.06537449  0.00955694  0.91584295     0.10470
S919        S  0.10645693  0.51185322  0.07217192    -0.32890
S920        S  0.05294408  0.01260445  0.85322714    -0.32890
H921        H  0.02700610  0.00918355  0.86790603     0.28480
H922        H  0.13443828  0.52570238  0.05341965     0.28470
H923        H  0.05491421  0.50818211  0.04547205     0.19060
H924        H  0.09852754  0.00659103  0.88041104     0.19070
C925        C  0.50203728  0.89935221  0.98077249    -0.06760
C926        C  0.50215915  0.91080422  0.93275293    -0.17890
C927        C  0.50214542  0.93557056  0.92853295     0.10440
C928        C  0.00450083  0.95105417  0.97341678    -0.06690
C929        C  0.00653724  0.94077216  0.02139980    -0.17920
C930        C  0.50414465  0.91469610  0.02582782     0.10470
S931        S  0.49754943  0.94470814  0.86436066    -0.32890
S932        S  0.00116989  0.90132026  0.09004377    -0.32890
H933        H  0.48109606  0.87337240  0.07689389     0.28480
H934        H  0.48866016  0.96283212  0.87835842     0.28470
H935        H  0.50118437  0.89977251  0.89775191     0.19060
H936        H  0.00797850  0.95224403  0.05600960     0.19070
C937        C  0.40406625  0.88732509  0.01777688    -0.06760
C938        C  0.42074666  0.90659919  0.05628491    -0.17890
C939        C  0.44247189  0.93384078  0.04371974     0.10440
C940        C  0.44856221  0.94157803  0.99131673    -0.06690
C941        C  0.43156999  0.92252390  0.95304505    -0.17920
C942        C  0.40885109  0.89602058  0.96566241     0.10470
S943        S  0.46180322  0.95735706  0.09642151    -0.32890
S944        S  0.38616111  0.87493248  0.91332536    -0.32890
H945        H  0.36132124  0.86033832  0.94282868     0.28480
H946        H  0.47149042  0.98257765  0.07017240     0.28470
H947        H  0.41698984  0.90031165  0.09630253     0.19060
H948        H  0.43569536  0.92854962  0.91298567     0.19070
C949        C  0.48271717  0.54138158  0.97580597    -0.06760
C950        C  0.97950445  0.54597887  0.02772775    -0.17890
C951        C  0.47230913  0.56544589  0.04258401     0.10440
C952        C  0.46920224  0.58186581  0.00488123    -0.06690
C953        C  0.47105189  0.57637026  0.95267378    -0.17920
C954        C  0.47735056  0.55603085  0.93772578     0.10470
S955        S  0.96705799  0.56802549  0.11044459    -0.32890
S956        S  0.47877853  0.54939669  0.87027864    -0.32890
H957        H  0.46806938  0.56565576  0.85180102     0.28480
H958        H  0.94789629  0.57715856  0.10412607     0.28470
H959        H  0.98216448  0.53384880  0.05711669     0.19060
H960        H  0.46866342  0.58882126  0.92366341     0.19070
C961        C  0.15625899  0.76277660  0.01100091    -0.06760
C962        C  0.13089117  0.74655345  0.98305894    -0.17890
C963        C  0.12602674  0.72313914  0.95384015     0.10440
C964        C  0.14651606  0.71505494  0.95411333    -0.06690
C965        C  0.17246108  0.73259364  0.97931379    -0.17920
C966        C  0.17766339  0.75630442  0.00635520     0.10470
S967        S  0.09327689  0.70448827  0.91777437    -0.32890
S968        S  0.21160158  0.77628442  0.03787266    -0.32890
H969        H  0.21187019  0.80141952  0.03883942     0.28480
H970        H  0.10396539  0.69497148  0.87901388     0.28470
H971        H  0.11416074  0.75109410  0.98637663     0.19060
H972        H  0.18860219  0.72716136  0.98023293     0.19070
C973        C  0.26002657  0.80713777  0.13944994    -0.06760
C974        C  0.27044950  0.82373911  0.09508832    -0.17890
C975        C  0.29435868  0.82780296  0.06948484     0.10440
C976        C  0.30956142  0.81611889  0.08960157    -0.06690
C977        C  0.29872838  0.79849939  0.13288713    -0.17920
C978        C  0.27414094  0.79398899  0.15836118     0.10470
S979        S  0.30436649  0.84829049  0.01129976    -0.32890
S980        S  0.26322254  0.77276046  0.21565326    -0.32890
H981        H  0.24213699  0.77776400  0.23223964     0.28480
H982        H  0.31386927  0.83262247  0.98558390     0.28470
H983        H  0.25997257  0.83419773  0.08054678     0.19060
H984        H  0.31010224  0.78910932  0.14804501     0.19070
C985        C  0.06923508  0.81651485  0.07826989    -0.06760
C986        C  0.04673145  0.81466551  0.10727885    -0.17890
C987        C  0.02938493  0.82368137  0.08721152     0.10440
C988        C  0.03467623  0.83488902  0.03747637    -0.06690
C989        C  0.05569349  0.83515676  0.00719190    -0.17920
C990        C  0.07278591  0.82571636  0.02645707     0.10470
S991        S  0.00061831  0.82094676  0.12493277    -0.32890
S992        S  0.09828528  0.82519713  0.98354261    -0.32890
H993        H  0.09544006  0.83996364  0.94264825     0.28480
H994        H  0.50429466  0.80798997  0.16801761     0.28470
H995        H  0.04348995  0.80745102  0.14667832     0.19060
H996        H  0.05805540  0.84212807  0.96765746     0.19070
C997        C  0.06630043  0.71352891  0.15243864    -0.06760
C998        C  0.03871741  0.70598531  0.16830005    -0.17890
C999        C  0.01414911  0.68564548  0.14215016     0.10440
C1000       C  0.01666529  0.67295300  0.09711620    -0.06690
C1001       C  0.04404414  0.67953382  0.08247484    -0.17920
C1002       C  0.06849960  0.69870131  0.11025808     0.10470
S1003       S  0.48034249  0.67639473  0.16929806    -0.32890
S1004       S  0.10160667  0.70327323  0.08884726    -0.32890
H1005       H  0.10925392  0.69905903  0.13821040     0.28480
H1006       H  0.46628393  0.64804133  0.15471037     0.28470
H1007       H  0.03613025  0.71620401  0.20144011     0.19060
H1008       H  0.04650210  0.66957454  0.04877165     0.19070
C1009       C  0.25064857  0.90278736  0.03203859    -0.06760
C1010       C  0.26936822  0.93094221  0.04498084    -0.17890
C1011       C  0.28627830  0.95045202  0.00768609     0.10440
C1012       C  0.28516567  0.94169791  0.95624786    -0.06690
C1013       C  0.26571758  0.91376622  0.94276761    -0.17920
C1014       C  0.24845007  0.89424033  0.97998623     0.10470
S1015       S  0.31044289  0.98591788  0.02866592    -0.32890
S1016       S  0.22584282  0.85839899  0.95931318    -0.32890
H1017       H  0.22946717  0.84690760  0.00454656     0.28480
H1018       H  0.30794564  0.99823055  0.98356507     0.28470
H1019       H  0.27062787  0.93788064  0.08441111     0.19060
H1020       H  0.26552854  0.90669664  0.90380351     0.19070
C1021       C  0.15889871  0.92199301  0.09069038    -0.06760
C1022       C  0.18223293  0.94827658  0.07877335    -0.17890
C1023       C  0.17879419  0.96707443  0.04936825     0.10440
C1024       C  0.15177925  0.95839244  0.02747402    -0.06690
C1025       C  0.12823254  0.93256200  0.04200994    -0.17920
C1026       C  0.13145622  0.91498534  0.07542234     0.10470
S1027       S  0.20934070  0.50212888  0.04398873    -0.32890
S1028       S  0.09982080  0.88497598  0.09993415    -0.32890
H1029       H  0.11132975  0.88447886  0.14796499     0.28480
H1030       H  0.19358330  0.51529168  0.04175470     0.28470
H1031       H  0.20314073  0.95434156  0.09319798     0.19060
H1032       H  0.10721332  0.92606496  0.02764828     0.19070
C1033       C  0.30119685  0.84734023  0.43503283    -0.06760
C1034       C  0.31132326  0.85801745  0.38543682    -0.17890
C1035       C  0.29317082  0.85693324  0.34644827     0.10440
C1036       C  0.26389198  0.84463257  0.35676703    -0.06690
C1037       C  0.25379074  0.83258984  0.40575879    -0.17920
C1038       C  0.27193162  0.83436530  0.44501247     0.10470
S1039       S  0.30905073  0.87256402  0.28569033    -0.32890
S1040       S  0.25743652  0.82265178  0.50880364    -0.32890
H1041       H  0.22862448  0.80685626  0.49423263     0.28480
H1042       H  0.29155773  0.84769638  0.25785527     0.28470
H1043       H  0.33373011  0.86760366  0.37705946     0.19060
H1044       H  0.23146044  0.82268687  0.41469164     0.19070
C1045       C  0.17376338  0.69705760  0.39061954    -0.06760
C1046       C  0.15624707  0.69135037  0.34738465    -0.17890
C1047       C  0.15528273  0.71265134  0.32151840     0.10440
C1048       C  0.17353317  0.74092060  0.33696872    -0.06690
C1049       C  0.19055228  0.74668986  0.38081966    -0.17920
C1050       C  0.19034528  0.72515105  0.40836426     0.10470
S1051       S  0.12909872  0.70200446  0.27087513    -0.32890
S1052       S  0.21014301  0.73493987  0.46759269    -0.32890
H1053       H  0.18941495  0.71095164  0.49373337     0.28480
H1054       H  0.12134340  0.72145613  0.28401296     0.28470
H1055       H  0.14295677  0.67000036  0.33372736     0.19060
H1056       H  0.20389458  0.76810684  0.39409860     0.19070
C1057       C  0.08434723  0.85977110  0.30954903    -0.06760
C1058       C  0.06528956  0.86574705  0.28579974    -0.17890
C1059       C  0.04259821  0.86423173  0.31353364     0.10440
C1060       C  0.03879612  0.85636917  0.36609171    -0.06690
C1061       C  0.05841348  0.85139342  0.38991412    -0.17920
C1062       C  0.08070331  0.85262834  0.36245118     0.10470
S1063       S  0.01753787  0.87035602  0.28057492    -0.32890
S1064       S  0.10280743  0.84374947  0.39803569    -0.32890
H1065       H  0.11148069  0.83416556  0.35668803     0.28480
H1066       H  0.03181096  0.87842827  0.23313789     0.28470
H1067       H  0.06748585  0.87036970  0.24502416     0.19060
H1068       H  0.05595955  0.84584645  0.43033637     0.19070
C1069       C  0.31644631  0.97817621  0.35314995    -0.06760
C1070       C  0.32305299  0.97731485  0.30120553    -0.17890
C1071       C  0.30151049  0.96274493  0.26402485     0.10440
C1072       C  0.27253723  0.94908171  0.27855141    -0.06690
C1073       C  0.26613271  0.95066611  0.33016710    -0.17920
C1074       C  0.28742399  0.96394359  0.36751007     0.10470
S1075       S  0.31226040  0.96253351  0.19862096    -0.32890
S1076       S  0.27586802  0.96005676  0.43354756    -0.32890
H1077       H  0.29981448  0.96090914  0.45451338     0.28480
H1078       H  0.28723325  0.95842626  0.17575650     0.28470
H1079       H  0.34508771  0.98849178  0.28933183     0.19060
H1080       H  0.24421042  0.93924133  0.34267857     0.19070
C1081       C  0.15377142  0.93568828  0.45828732    -0.06760
C1082       C  0.15795271  0.94048367  0.40564844    -0.17890
C1083       C  0.16557035  0.92528552  0.37416785     0.10440
C1084       C  0.16860295  0.90338801  0.39555463    -0.06690
C1085       C  0.16413039  0.89838290  0.44882073    -0.17920
C1086       C  0.15694327  0.91439228  0.48034951     0.10470
S1087       S  0.17067814  0.93486161  0.30648406    -0.32890
S1088       S  0.15187817  0.90650173  0.54806972    -0.32890
H1089       H  0.13397289  0.91685193  0.55720010     0.28480
H1090       H  0.16883421  0.95889025  0.30941319     0.28470
H1091       H  0.15554683  0.95684737  0.38917414     0.19060
H1092       H  0.16633330  0.88204417  0.46600859     0.19070
C1093       C  0.05814603  0.71254761  0.45002170    -0.06760
C1094       C  0.08110234  0.73711082  0.47025014    -0.17890
C1095       C  0.09527969  0.76120882  0.44070219     0.10440
C1096       C  0.08654037  0.76049120  0.38890015    -0.06690
C1097       C  0.06241834  0.73601197  0.36998221    -0.17920
C1098       C  0.04804277  0.71212586  0.40008798     0.10470
S1099       S  0.12435578  0.79152845  0.47204380    -0.32890
S1100       S  0.01757739  0.68169455  0.37192580    -0.32890
H1101       H  0.00255213  0.67039050  0.41785824     0.28480
H1102       H  0.11975248  0.81081688  0.44676847     0.28470
H1103       H  0.08791651  0.73748784  0.50961609     0.19060
H1104       H  0.05535960  0.73486742  0.33058530     0.19070
C1105       C  0.39666670  0.90674229  0.51270249    -0.06760
C1106       C  0.40755938  0.92386461  0.55645847    -0.17890
C1107       C  0.43356840  0.94946937  0.55509210     0.10440
C1108       C  0.44901368  0.95853732  0.50828694    -0.06690
C1109       C  0.43719784  0.94205179  0.46396293    -0.17920
C1110       C  0.41194349  0.91601166  0.46597358     0.10470
S1111       S  0.44558232  0.96840006  0.61530538    -0.32890
S1112       S  0.40138146  0.89495373  0.40813833    -0.32890
H1113       H  0.38917578  0.86908869  0.43354066     0.28480
H1114       H  0.47394069  0.98721385  0.60198970     0.28470
H1115       H  0.39575244  0.91712031  0.59214445     0.19060
H1116       H  0.44870811  0.94881192  0.42798995     0.19070
C1117       C  0.02934461  0.61618745  0.50469562    -0.06760
C1118       C  0.03580491  0.60562450  0.54776020    -0.17890
C1119       C  0.03092935  0.57868881  0.54768561     0.10440
C1120       C  0.02012381  0.56211688  0.50254999    -0.06690
C1121       C  0.01510696  0.57325536  0.45843512    -0.17920
C1122       C  0.01913728  0.60001882  0.45924657     0.10470
S1123       S  0.53763522  0.56700541  0.60781296    -0.32890
S1124       S  0.00911134  0.61232046  0.40372480    -0.32890
H1125       H  0.99976564  0.58842042  0.37275029     0.28480
H1126       H  0.52248760  0.53817690  0.59786466     0.28470
H1127       H  0.04339788  0.61806421  0.58274010     0.19060
H1128       H  0.00727600  0.56057223  0.42386851     0.19070
C1129       C  0.12151530  0.59813056  0.45665422    -0.06760
C1130       C  0.11745619  0.58547350  0.50500806    -0.17890
C1131       C  0.09086388  0.56280615  0.52049802     0.10440
C1132       C  0.06674487  0.55226859  0.48724405    -0.06690
C1133       C  0.07124168  0.56428277  0.43801168    -0.17920
C1134       C  0.09803278  0.58635310  0.42210255     0.10470
S1135       S  0.09030880  0.54944871  0.58361283    -0.32890
S1136       S  0.10091869  0.59748693  0.35612457    -0.32890
H1137       H  0.12950793  0.60547643  0.35037067     0.28480
H1138       H  0.06106779  0.53467195  0.58897651     0.28470
H1139       H  0.13508653  0.59391317  0.53196021     0.19060
H1140       H  0.05364093  0.55589225  0.41098793     0.19070
C1141       C  0.41110332  0.51439026  0.45070192    -0.06760
C1142       C  0.41996355  0.51908746  0.50272075    -0.17890
C1143       C  0.44479901  0.52044218  0.51965726     0.10440
C1144       C  0.46063591  0.51439512  0.48494614    -0.06690
C1145       C  0.45179593  0.50940688  0.43299705    -0.17920
C1146       C  0.42819395  0.51041486  0.41524810     0.10470
S1147       S  0.45477495  0.53126781  0.58556656    -0.32890
S1148       S  0.42243681  0.50821128  0.34665097    -0.32890
H1149       H  0.41373052  0.52769889  0.34555401     0.28480
H1150       H  0.47903536  0.52983968  0.58596116     0.28470
H1151       H  0.40749960  0.52207785  0.53117282     0.19060
H1152       H  0.46391429  0.50526074  0.40557790     0.19070
C1153       C  0.05292651  0.49358849  0.49923741    -0.06760
C1154       C  0.06761997  0.49784473  0.45276171    -0.17890
C1155       C  0.08779272  0.49002459  0.44735927     0.10440
C1156       C  0.09245430  0.47643775  0.48845581    -0.06690
C1157       C  0.07670880  0.97092205  0.53362531    -0.17920
C1158       C  0.05798602  0.98018763  0.54039363     0.10470
S1159       S  0.10815644  0.49969750  0.38880822    -0.32890
S1160       S  0.04424551  0.97660009  0.60474372    -0.32890
H1161       H  0.02936334  0.99025396  0.59790849     0.28480
H1162       H  0.11525641  0.47909601  0.39125409     0.28470
H1163       H  0.06357576  0.50763036  0.42071405     0.19060
H1164       H  0.08124937  0.96172095  0.56609954     0.19070
C1165       C  0.48926674  0.89956807  0.44974519    -0.06760
C1166       C  0.48476569  0.90275993  0.50189988    -0.17890
C1167       C  0.48647028  0.92686477  0.52038004     0.10440
C1168       C  0.49518940  0.94966490  0.48665636    -0.06690
C1169       C  0.99867741  0.94619482  0.43413001    -0.17920
C1170       C  0.99482817  0.92116896  0.41502881     0.10470
S1171       S  0.47662824  0.92579728  0.58675957    -0.32890
S1172       S  0.99605097  0.91790524  0.34614856    -0.32890
H1173       H  0.97701651  0.88876650  0.34473769     0.28480
H1174       H  0.48487670  0.95370009  0.59083697     0.28470
H1175       H  0.48037133  0.88646151  0.52929265     0.19060
H1176       H  0.00405174  0.96314576  0.40760916     0.19070
C1177       C  0.18623345  0.66204528  0.86987866    -0.06760
C1178       C  0.20113877  0.68034398  0.82920282    -0.17890
C1179       C  0.22496729  0.68169480  0.80729042     0.10440
C1180       C  0.23384929  0.66355160  0.82472800    -0.06690
C1181       C  0.21920460  0.64541271  0.86568068    -0.17920
C1182       C  0.19592833  0.64474056  0.88887858     0.10470
S1183       S  0.24385727  0.70801554  0.75882231    -0.32890
S1184       S  0.18050501  0.62215428  0.94384133    -0.32890
H1185       H  0.17465727  0.64026666  0.97104967     0.28480
H1186       H  0.27107040  0.71454218  0.77454003     0.28470
H1187       H  0.19435097  0.69401815  0.81464255     0.19060
H1188       H  0.22598637  0.63165779  0.87984989     0.19070
C1189       C  0.36122290  0.78896453  0.97057808    -0.06760
C1190       C  0.36592142  0.79787838  0.91918214    -0.17890
C1191       C  0.36313509  0.78019529  0.87873938     0.10440
C1192       C  0.35472564  0.75217237  0.88962928    -0.06690
C1193       C  0.35021129  0.74329954  0.94144614    -0.17920
C1194       C  0.35375170  0.76140594  0.98184966     0.10470
S1195       S  0.36873253  0.79391810  0.81393575    -0.32890
S1196       S  0.34899202  0.74822527  0.04664634    -0.32890
H1197       H  0.36800127  0.77416463  0.06992654     0.28480
H1198       H  0.38218015  0.82241413  0.82730205     0.28470
H1199       H  0.37083684  0.81871534  0.91035680     0.19060
H1200       H  0.34427594  0.72212715  0.95093786     0.19070
C1201       C  0.44099478  0.66840010  0.62126193    -0.06760
C1202       C  0.46871260  0.69074803  0.63025748    -0.17890
C1203       C  0.49188614  0.68954142  0.61320320     0.10440
C1204       C  0.48704916  0.66609858  0.58412831    -0.06690
C1205       C  0.45928604  0.64312458  0.57789401    -0.17920
C1206       C  0.43630553  0.64366040  0.59791760     0.10470
S1207       S  0.02689004  0.71823463  0.63031773    -0.32890
S1208       S  0.40198051  0.61178511  0.59446137    -0.32890
H1209       H  0.39090785  0.61606712  0.63980684     0.28480
H1210       H  0.04022266  0.70271107  0.62751535     0.28470
H1211       H  0.47227833  0.70903225  0.65134898     0.19060
H1212       H  0.45534434  0.62483234  0.55640072     0.19070
C1213       C  0.45807334  0.80268116  0.49148317    -0.06760
C1214       C  0.46494825  0.80674242  0.54428680    -0.17890
C1215       C  0.44705092  0.78729716  0.58132588     0.10440
C1216       C  0.42111749  0.76336188  0.56565313    -0.06690
C1217       C  0.41462452  0.75927226  0.51256282    -0.17920
C1218       C  0.43257189  0.77855778  0.47566242     0.10470
S1219       S  0.45893740  0.79393699  0.64739442    -0.32890
S1220       S  0.42062486  0.77210856  0.40956185    -0.32890
H1221       H  0.44767109  0.78580085  0.38711908     0.28480
H1222       H  0.44985247  0.76592296  0.65834831     0.28470
H1223       H  0.48429598  0.82552240  0.55681360     0.19060
H1224       H  0.39497592  0.74100811  0.49951263     0.19070
C1225       C  0.46395112  0.80353518  0.90429860    -0.06760
C1226       C  0.44194080  0.77742233  0.92053618    -0.17890
C1227       C  0.42929051  0.75455045  0.88724580     0.10440
C1228       C  0.43915338  0.75752481  0.83579115    -0.06690
C1229       C  0.46140334  0.78388871  0.81969867    -0.17920
C1230       C  0.47420264  0.80675082  0.85355071     0.10470
S1231       S  0.39996277  0.72326754  0.91420179    -0.32890
S1232       S  0.00347401  0.83932662  0.82977817    -0.32890
H1233       H  0.01930708  0.84765245  0.87580697     0.28480
H1234       H  0.38610118  0.71118635  0.86821821     0.28470
H1235       H  0.43464258  0.77484746  0.96002347     0.19060
H1236       H  0.46847129  0.78680096  0.78006217     0.19070
C1237       C  0.42843340  0.64443878  0.98715923    -0.06760
C1238       C  0.39922185  0.62364295  0.98339440    -0.17890
C1239       C  0.37986817  0.62768611  0.95445845     0.10440
C1240       C  0.38939391  0.65334105  0.92881861    -0.06690
C1241       C  0.41828041  0.67440052  0.93484995    -0.17920
C1242       C  0.43769681  0.67038825  0.96286323     0.10470
S1243       S  0.34416370  0.59827596  0.94688576    -0.32890
S1244       S  0.47494872  0.69738360  0.95976652    -0.32890
H1245       H  0.47120788  0.71898058  0.94232535     0.28480
H1246       H  0.33187460  0.61451511  0.94088504     0.28470
H1247       H  0.39155379  0.60359989  0.00161524     0.19060
H1248       H  0.42658704  0.69324420  0.91232031     0.19070
C1249       C  0.31996950  0.75884861  0.62829630    -0.06760
C1250       C  0.30979275  0.77527663  0.64814860    -0.17890
C1251       C  0.31508710  0.79974780  0.62270545     0.10440
C1252       C  0.33146426  0.80832939  0.57704737    -0.06690
C1253       C  0.34097629  0.79160611  0.55692460    -0.17920
C1254       C  0.33526835  0.76708523  0.58138713     0.10470
S1255       S  0.30043134  0.81896637  0.65047531    -0.32890
S1256       S  0.34888917  0.74786143  0.55009805    -0.32890
H1257       H  0.33341106  0.72314646  0.57777658     0.28480
H1258       H  0.31937536  0.84492534  0.62790916     0.28470
H1259       H  0.29845796  0.76952034  0.68435674     0.19060
H1260       H  0.35282459  0.79762939  0.52121660     0.19070
C1261       C  0.28352591  0.67265849  0.50801898    -0.06760
C1262       C  0.27220879  0.68939348  0.51956912    -0.17890
C1263       C  0.24473846  0.68143652  0.50468684     0.10440
C1264       C  0.22977127  0.65962560  0.46850093    -0.06690
C1265       C  0.24311844  0.64576611  0.44954740    -0.17920
C1266       C  0.26977568  0.65197845  0.46930039     0.10470
S1267       S  0.22851074  0.69697892  0.54042478    -0.32890
S1268       S  0.28562244  0.63365052  0.44302743    -0.32890
H1269       H  0.31349251  0.65357765  0.45861920     0.28480
H1270       H  0.20079230  0.67333012  0.53911811     0.28470
H1271       H  0.28234972  0.70538081  0.54916997     0.19060
H1272       H  0.23262966  0.62986249  0.42000060     0.19070
C1273       C  0.34601553  0.52322966  0.83957298    -0.06760
C1274       C  0.33642652  0.52011418  0.78871163    -0.17890
C1275       C  0.34288622  0.54352326  0.75896090     0.10440
C1276       C  0.35854908  0.57066017  0.78114576    -0.06690
C1277       C  0.36999092  0.57380686  0.83073987    -0.17920
C1278       C  0.36394271  0.55041905  0.86005282     0.10470
S1279       S  0.33126994  0.53858649  0.69251509    -0.32890
S1280       S  0.37918510  0.55659125  0.92379189    -0.32890
H1281       H  0.35688898  0.53223852  0.94630171     0.28480
H1282       H  0.31753031  0.50924230  0.69138424     0.28470
H1283       H  0.32406944  0.49929068  0.77231448     0.19060
H1284       H  0.38200184  0.59441106  0.84823726     0.19070
C1285       C  0.24810846  0.56824264  0.85287688    -0.06760
C1286       C  0.23088777  0.54184837  0.82927527    -0.17890
C1287       C  0.20438939  0.52213989  0.84943883     0.10440
C1288       C  0.19474399  0.52899260  0.89383464    -0.06690
C1289       C  0.21214254  0.55453503  0.91872431    -0.17920
C1290       C  0.23884672  0.57386673  0.89992869     0.10470
S1291       S  0.18375296  0.98906432  0.81630103    -0.32890
S1292       S  0.25955537  0.60463156  0.93944397    -0.32890
H1293       H  0.28416543  0.60323951  0.93637479     0.28480
H1294       H  0.15696398  0.98324823  0.83259593     0.28470
H1295       H  0.23749676  0.53677684  0.79378974     0.19060
H1296       H  0.20511507  0.55907544  0.95437759     0.19070
C1297       C  0.18544943  0.52072332  0.57044413    -0.06760
C1298       C  0.21170717  0.53911600  0.54811669    -0.17890
C1299       C  0.23093007  0.56441198  0.57199072     0.10440
C1300       C  0.22417298  0.57184494  0.61953093    -0.06690
C1301       C  0.19792231  0.55342900  0.64221718    -0.17920
C1302       C  0.17850071  0.52793683  0.61824141     0.10470
S1303       S  0.26445672  0.58610049  0.54087249    -0.32890
S1304       S  0.14566162  0.50506580  0.65137897    -0.32890
H1305       H  0.14118318  0.48001173  0.62994938     0.28480
H1306       H  0.26469373  0.61072638  0.55179471     0.28470
H1307       H  0.21696045  0.53411080  0.51104914     0.19060
H1308       H  0.19314872  0.55823571  0.67989273     0.19070
C1309       C  0.33471045  0.58494359  0.54684512    -0.06760
C1310       C  0.32321290  0.55659383  0.55887648    -0.17890
C1311       C  0.32965925  0.53966182  0.52970841     0.10440
C1312       C  0.34762876  0.55100650  0.48660384    -0.06690
C1313       C  0.35769709  0.57855067  0.47227379    -0.17920
C1314       C  0.35149732  0.59563025  0.50133363     0.10470
S1315       S  0.31427727  0.50382502  0.54984956    -0.32890
S1316       S  0.36649043  0.63078769  0.47762372    -0.32890
H1317       H  0.38707194  0.64244630  0.51701479     0.28480
H1318       H  0.33568641  0.49991087  0.53067524     0.28470
H1319       H  0.30975496  0.54762764  0.59225393     0.19060
H1320       H  0.37078571  0.58691655  0.43822134     0.19070
O1321       O  0.84235665  0.12877750  0.57227460    -0.87130
O1322       O  0.78522802  0.11521821  0.84303732    -0.87290
O1323       O  0.83233688  0.08651147  0.73957343    -0.88960
O1324       O  0.76417020  0.08633762  0.66885135    -0.87720
O1325       O  0.75090311  0.11841711  0.65507315    -0.87310
O1326       O  0.87725930  0.11970105  0.76614920    -0.88680
O1327       O  0.77844933  0.08400028  0.77963839    -0.87160
O1328       O  0.81965124  0.09270958  0.62891160    -0.86740
Zr1329     Zr  0.80998105  0.11038530  0.70873563     2.84310
O1330       O  0.79158953  0.13549931  0.74662780    -1.08720
O1331       O  0.85611994  0.14099219  0.68122757    -1.09450
C1332       C  0.83154539  0.10313062  0.58485750     1.05980
C1333       C  0.77264808  0.09042655  0.82385129     1.05920
C1334       C  0.85656692  0.09397288  0.75955678     1.08910
C1335       C  0.74733167  0.09365069  0.65113571     1.06690
H1336       H  0.83642644  0.12265825  0.80603143     0.32240
O1337       O  0.83727414  0.13545775  0.78032960    -1.30050
H1338       H  0.79869654  0.12957150  0.61812773     0.31920
O1339       O  0.80954779  0.14023092  0.64766351    -1.31350
O1340       O  0.83601716  0.20556643  0.86140256    -0.87120
O1341       O  0.88808598  0.21625057  0.58396035    -0.88620
O1342       O  0.88897266  0.15878852  0.84080376    -0.87200
O1343       O  0.75839534  0.16344371  0.75025436    -0.87250
O1344       O  0.78382705  0.16498456  0.59442063    -0.86960
O1345       O  0.91814875  0.17182990  0.69207569    -0.86760
O1346       O  0.91113138  0.24613323  0.76298683    -0.87140
O1347       O  0.84377316  0.24559177  0.68449276    -0.86600
O1348       O  0.91638767  0.21152165  0.79746288    -0.87660
O1349       O  0.79893085  0.21142668  0.65832637    -0.86820
O1350       O  0.85139366  0.15642884  0.88330552    -0.87220
O1351       O  0.89877632  0.16891639  0.61185881    -0.86940
O1352       O  0.82314882  0.17196437  0.55101117    -0.86590
O1353       O  0.77594203  0.16152623  0.82958514    -0.87000
O1354       O  0.86151517  0.24098939  0.80405029    -0.87300
O1355       O  0.89657732  0.24818388  0.64739147    -0.88630
Zr1356     Zr  0.82033110  0.16185381  0.81687058     2.83100
Zr1357     Zr  0.85537133  0.17071908  0.61850779     2.83500
Zr1358     Zr  0.88352389  0.16643561  0.75269249     2.84090
Zr1359     Zr  0.79057750  0.16499637  0.68462783     2.83360
Zr1360     Zr  0.86580048  0.22217186  0.72180414     2.84220
O1361       O  0.83655905  0.19558985  0.65420957    -1.09200
O1362       O  0.86526535  0.19221439  0.78466909    -1.08710
C1363       C  0.85041129  0.23165101  0.84880527     1.05950
C1364       C  0.90077204  0.24138211  0.60182411     1.08570
C1365       C  0.87488907  0.15587868  0.88183751     1.06130
C1366       C  0.75761223  0.16269264  0.80000049     1.06490
C1367       C  0.79814855  0.16912868  0.55309798     1.06070
C1368       C  0.91780777  0.17007587  0.64282717     1.05620
C1369       C  0.92187618  0.23704079  0.79547034     1.06050
C1370       C  0.82020137  0.23719045  0.66057246     1.05560
H1371       H  0.90419980  0.20926170  0.67809057     0.32240
O1372       O  0.88476995  0.19672404  0.68850331    -1.30300
H1373       H  0.81247670  0.20293309  0.76729441     0.32260
O1374       O  0.81973074  0.19192136  0.75337486    -1.31690
C1375       C  0.97891229  0.48287100  0.50527550     0.01650
C1376       C  0.00144720  0.47782667  0.50272896     0.01650
C1377       C  0.53020860  0.00034544  0.50176829     0.01650
C1378       C  0.53678064  0.02838670  0.49978688     0.01650
C1379       C  0.51375265  0.03314063  0.50046614     0.01650
C1380       C  0.98475941  0.01047514  0.50045843     0.01650
C1381       C  0.50942796  0.16674738  0.55290280     0.02490
C1382       C  0.51183123  0.14323254  0.54864975    -0.13660
C1383       C  0.52950361  0.14223203  0.51124256    -0.00010
C1384       C  0.54576355  0.16534412  0.47949168    -0.12180
C1385       C  0.54331371  0.18879919  0.48428175     0.02480
C1386       C  0.52518975  0.18941239  0.52043414    -0.11610
H1387       H  0.49891762  0.12516479  0.57272266     0.08080
H1388       H  0.55957257  0.16481952  0.45055696     0.05610
H1389       H  0.52231408  0.20710657  0.52127572     0.05450
C1390       C  0.64732156  0.45463436  0.48736775     0.02490
C1391       C  0.66816590  0.97599970  0.51927741    -0.13660
C1392       C  0.66405879  0.99710134  0.53874107    -0.00010
C1393       C  0.63999306  0.99744679  0.52443714    -0.12180
C1394       C  0.61891040  0.97630023  0.49394247     0.02480
C1395       C  0.62230277  0.45463558  0.47570011    -0.11610
H1396       H  0.68775542  0.97669141  0.52754228     0.08080
H1397       H  0.63726929  0.01418289  0.53822928     0.05610
H1398       H  0.60597194  0.43829375  0.45157682     0.05450
C1399       C  0.85473931  0.03410608  0.45396704     0.02490
C1400       C  0.87989833  0.03435577  0.46179727    -0.13660
C1401       C  0.88495674  0.01518810  0.43602419    -0.00010
C1402       C  0.86397794  0.99622519  0.40029124    -0.12180
C1403       C  0.83930803  0.99732299  0.39004997     0.02480
C1404       C  0.83546952  0.01680355  0.41660865    -0.11610
H1405       H  0.89514993  0.04917745  0.48934581     0.08080
H1406       H  0.86627019  0.48025280  0.38168702     0.05610
H1407       H  0.81673832  0.01791606  0.40945675     0.05450
C1408       C  0.51485014  0.35333807  0.39752224     0.02490
C1409       C  0.99700846  0.32855349  0.42535513    -0.13660
C1410       C  0.97503190  0.32641239  0.45616210    -0.00010
C1411       C  0.97070044  0.34872074  0.45815730    -0.12180
C1412       C  0.98977853  0.37431205  0.43482266     0.02480
C1413       C  0.51186072  0.37645284  0.40456439    -0.11610
H1414       H  0.00040816  0.31122713  0.42357433     0.08080
H1415       H  0.95346605  0.34670722  0.48142736     0.05610
H1416       H  0.52764293  0.39642739  0.38844429     0.05450
C1417       C  0.70172290  0.15352584  0.44799451     0.02490
C1418       C  0.67604311  0.12787339  0.45720119    -0.13660
C1419       C  0.64939072  0.12470256  0.44523768    -0.00010
C1420       C  0.64919464  0.14801932  0.42564194    -0.12180
C1421       C  0.67455659  0.17333445  0.41477358     0.02480
C1422       C  0.70056977  0.17551509  0.42486549    -0.11610
H1423       H  0.67681221  0.11084362  0.47498165     0.08080
H1424       H  0.62909444  0.14659773  0.41927081     0.05610
H1425       H  0.72021434  0.19486704  0.41632503     0.05450
C1426       C  0.83679658  0.33276364  0.54598515     0.02490
C1427       C  0.86288797  0.35853540  0.54898508    -0.13660
C1428       C  0.86841798  0.38047999  0.51525304    -0.00010
C1429       C  0.84720762  0.37694580  0.48096613    -0.12180
C1430       C  0.82180998  0.35108431  0.47582699     0.02480
C1431       C  0.81705279  0.32889038  0.50783871    -0.11610
H1432       H  0.87912448  0.36107548  0.57585119     0.08080
H1433       H  0.85107474  0.39424421  0.45657561     0.05610
H1434       H  0.79826398  0.30830762  0.50245555     0.05450
O1435       O  0.63127070  0.29699931  0.36244067    -0.87130
O1436       O  0.61590188  0.32500003  0.08465409    -0.87290
O1437       O  0.59335320  0.33028436  0.26075536    -0.88960
O1438       O  0.58533779  0.25663559  0.19645709    -0.87720
O1439       O  0.61693194  0.24470176  0.16980374    -0.87310
O1440       O  0.63010881  0.37582883  0.27206312    -0.88680
O1441       O  0.58589626  0.30547197  0.15306781    -0.87160
O1442       O  0.59401468  0.28145469  0.30665243    -0.86740
Zr1443     Zr  0.61346986  0.30461844  0.22490484     2.84310
O1444       O  0.63498441  0.29706442  0.15360100    -1.08720
O1445       O  0.64448167  0.34050002  0.28178077    -1.09450
C1446       C  0.60487154  0.28166920  0.35087601     1.05980
C1447       C  0.59148946  0.31457706  0.10640582     1.05920
C1448       C  0.60385547  0.35549166  0.27743157     1.08910
C1449       C  0.59125974  0.23957431  0.17511913     1.06690
H1450       H  0.62962635  0.35320775  0.17061441     0.32240
O1451       O  0.64190058  0.34686172  0.18217400    -1.29670
H1452       H  0.63091249  0.27079017  0.27595648     0.31920
O1453       O  0.64207425  0.28861856  0.25903949    -1.31350
O1454       O  0.70536354  0.36858684  0.06093919    -0.87120
O1455       O  0.71939385  0.33865977  0.34203927    -0.88620
O1456       O  0.66974313  0.40764121  0.16732912    -0.87200
O1457       O  0.65888345  0.26988093  0.09922561    -0.87250
O1458       O  0.67276627  0.26150523  0.25882748    -0.86960
O1459       O  0.68993970  0.39935577  0.32159139    -0.86760
O1460       O  0.75490131  0.40915223  0.22648154    -0.87140
O1461       O  0.74714511  0.33485639  0.18119840    -0.86600
O1462       O  0.72393441  0.42259421  0.25042282    -0.87660
O1463       O  0.71211210  0.28917339  0.16896788    -0.86820
O1464       O  0.66079902  0.38113175  0.09365051    -0.87220
O1465       O  0.66847633  0.36051617  0.36984008    -0.86940
O1466       O  0.67675994  0.28502315  0.33344522    -0.86590
O1467       O  0.65795040  0.30315558  0.04975839    -0.87000
O1468       O  0.74278817  0.38472457  0.11742115    -0.87300
O1469       O  0.74877205  0.35188408  0.27320252    -0.88630
Zr1470     Zr  0.66379966  0.33985933  0.11169256     2.83100
Zr1471     Zr  0.67326006  0.32596143  0.31375413     2.83500
Zr1472     Zr  0.67511366  0.38210752  0.23677455     2.84090
Zr1473     Zr  0.66578588  0.28475769  0.18756622     2.83360
Zr1474     Zr  0.72546925  0.36082050  0.20092294     2.84220
O1475       O  0.67865544  0.32812778  0.22368156    -1.09200
O1476       O  0.69798728  0.37671387  0.16526034    -1.08710
C1477       C  0.73185786  0.38382941  0.07261774     1.05950
C1478       C  0.74297158  0.34522594  0.32107276     1.08570
C1479       C  0.66363296  0.40235592  0.11906834     1.06130
C1480       C  0.65732771  0.27983433  0.05573116     1.06490
C1481       C  0.67480063  0.26424921  0.30799769     1.06070
C1482       C  0.67634612  0.38656561  0.36154252     1.05620
C1483       C  0.74920012  0.42641214  0.24737603     1.06050
C1484       C  0.73829620  0.30975631  0.16727940     1.05560
H1485       H  0.71892327  0.38040198  0.29796799     0.32240
O1486       O  0.70494357  0.36780123  0.27324474    -1.30300
H1487       H  0.70523136  0.32399503  0.11382877     0.32260
O1488       O  0.69517448  0.32611976  0.14205571    -1.31690
C1489       C  0.94908545  0.13785323  0.01220839     0.02490
C1490       C  0.94835302  0.11296095  0.99909277    -0.13660
C1491       C  0.96855732  0.10729997  0.01932702    -0.00010
C1492       C  0.99013299  0.12709731  0.05154087    -0.12180
C1493       C  0.99164356  0.15191779  0.06560957     0.02480
C1494       C  0.97059672  0.15686545  0.04679826    -0.11610
H1495       H  0.93247344  0.09826063  0.97234070     0.08080
H1496       H  0.50627904  0.12321994  0.06544418     0.05610
H1497       H  0.97152365  0.17593652  0.05781189     0.05450
C1498       C  0.98933976  0.01923138  0.96434440     0.01650
C1499       C  0.96704245  0.49103627  0.96537766     0.01650
C1500       C  0.97232138  0.46963481  0.97557682     0.01650
C1501       C  0.50016917  0.47520880  0.97233649     0.01650
C1502       C  0.52292023  0.50315188  0.96503731     0.01650
C1503       C  0.51767180  0.02544725  0.96347788     0.01650
C1504       C  0.64796663  0.47555633  0.98893806     0.02490
C1505       C  0.66797147  0.48841661  0.94976840    -0.13660
C1506       C  0.66843163  0.00922542  0.92006739    -0.00010
C1507       C  0.64715291  0.01538298  0.92560985    -0.12180
C1508       C  0.62509752  0.50058145  0.96084912     0.02480
C1509       C  0.62554256  0.48046260  0.99245234    -0.11610
H1510       H  0.68491663  0.48422039  0.94561387     0.08080
H1511       H  0.64832887  0.03233476  0.90354080     0.05610
H1512       H  0.60896583  0.46925137  0.02056535     0.05450
C1513       C  0.51467194  0.34033134  0.01136597     0.02490
C1514       C  0.99557542  0.31960612  0.97809799    -0.13660
C1515       C  0.97946191  0.32474634  0.94423795    -0.00010
C1516       C  0.98041745  0.35018031  0.94674690    -0.12180
C1517       C  0.99926504  0.37141848  0.98146281     0.02480
C1518       C  0.51710736  0.36648314  0.01272915    -0.11610
H1519       H  0.99486176  0.29990964  0.97579627     0.08080
H1520       H  0.96710347  0.35357080  0.92086871     0.05610
H1521       H  0.53338839  0.38302775  0.03655029     0.05450
C1522       C  0.64157634  0.18803434  0.93233251     0.02490
C1523       C  0.66379690  0.18752973  0.90657054    -0.13660
C1524       C  0.66136279  0.16215429  0.89217613    -0.00010
C1525       C  0.63540699  0.13708802  0.90003941    -0.12180
C1526       C  0.61310179  0.13698577  0.92591952     0.02480
C1527       C  0.61647456  0.16235454  0.94305362    -0.11610
H1528       H  0.68358543  0.20697714  0.89941609     0.08080
H1529       H  0.63276728  0.11744659  0.88730800     0.05610
H1530       H  0.59971390  0.16196219  0.96526075     0.05450
C1531       C  0.84003364  0.49806326  0.86823272     0.02490
C1532       C  0.81339584  0.47993173  0.89098287    -0.13660
C1533       C  0.80990077  0.45800747  0.92271376    -0.00010
C1534       C  0.83242367  0.45376131  0.92974091    -0.12180
C1535       C  0.85896807  0.47247942  0.90928755     0.02480
C1536       C  0.86251596  0.49400120  0.87723830    -0.11610
H1537       H  0.79626034  0.48382293  0.88657451     0.08080
H1538       H  0.82991435  0.43720866  0.95489994     0.05610
H1539       H  0.88335673  0.00879408  0.86187747     0.05450
C1540       C  0.86243256  0.30878696  0.00973773     0.02490
C1541       C  0.83848812  0.30188012  0.03963487    -0.13660
C1542       C  0.83688972  0.32279669  0.06628773    -0.00010
C1543       C  0.85951599  0.35087864  0.06258317    -0.12180
C1544       C  0.88319972  0.35790154  0.03186031     0.02480
C1545       C  0.88521174  0.33658243  0.00838327    -0.11610
H1546       H  0.82011461  0.28077126  0.03852518     0.08080
H1547       H  0.85762772  0.36736186  0.08018815     0.05610
H1548       H  0.90343300  0.34205534  0.98439272     0.05450
C1549       C  0.93824094  0.48361317  0.95129878    -0.06760
C1550       C  0.92010334  0.48210420  0.99013863    -0.17890
C1551       C  0.89301557  0.47656726  0.97803122     0.10440
C1552       C  0.88411292  0.47217500  0.92593537    -0.06690
C1553       C  0.90158107  0.47167591  0.88776504    -0.17920
C1554       C  0.92865971  0.47756563  0.89968292     0.10470
S1555       S  0.87126890  0.47749184  0.02884994    -0.32890
S1556       S  0.94958401  0.97724374  0.84674936    -0.32890
H1557       H  0.97636692  0.99653106  0.86730858     0.28480
H1558       H  0.88850922  0.47908552  0.07030715     0.28470
H1559       H  0.92765618  0.48623302  0.02958871     0.19060
H1560       H  0.89453509  0.96803500  0.84794399     0.19070
C1561       C  0.54133000  0.05490865  0.95644047    -0.06760
C1562       C  0.54616115  0.06603257  0.90660452    -0.17890
C1563       C  0.56835938  0.09324572  0.89624511     0.10440
C1564       C  0.58673623  0.10989463  0.93642218    -0.06690
C1565       C  0.58145729  0.09923946  0.98671498    -0.17920
C1566       C  0.55884986  0.07203289  0.99732568     0.10470
S1567       S  0.57229062  0.10542662  0.83083041    -0.32890
S1568       S  0.55402097  0.06083214  0.06361360    -0.32890
H1569       H  0.52807402  0.03539140  0.05846827     0.28480
H1570       H  0.58447486  0.13387415  0.84337697     0.28470
H1571       H  0.53258398  0.05333005  0.87519791     0.19060
H1572       H  0.59549922  0.11198908  0.01773255     0.19070
C1573       C  0.55204493  0.50854216  0.96277680    -0.06760
C1574       C  0.56488928  0.00854901  0.00938743    -0.17890
C1575       C  0.59000479  0.00829450  0.01024287     0.10440
C1576       C  0.60157043  0.50598336  0.96333625    -0.06690
C1577       C  0.58956139  0.50768426  0.91674676    -0.17920
C1578       C  0.56537448  0.50955690  0.91584337     0.10470
S1579       S  0.60645698  0.01185360  0.07217171    -0.32890
S1580       S  0.55294407  0.51260453  0.85322764    -0.32890
H1581       H  0.52700615  0.50918374  0.86790662     0.28480
H1582       H  0.63443832  0.02570273  0.05341941     0.28470
H1583       H  0.55491424  0.00818240  0.04547169     0.19060
H1584       H  0.59852754  0.50659108  0.88041128     0.19070
C1585       C  0.00203738  0.39935217  0.98077255    -0.06760
C1586       C  0.00215924  0.41080421  0.93275303    -0.17890
C1587       C  0.00214546  0.43557052  0.92853313     0.10440
C1588       C  0.50450079  0.45105404  0.97341704    -0.06690
C1589       C  0.50653720  0.44077200  0.02140002    -0.17920
C1590       C  0.00414472  0.41469601  0.02582794     0.10470
S1591       S  0.99754949  0.44470815  0.86436086    -0.32890
S1592       S  0.50116994  0.40132009  0.09004386    -0.32890
H1593       H  0.98109622  0.37337228  0.07689393     0.28480
H1594       H  0.98866031  0.46283220  0.87835865     0.28470
H1595       H  0.00118448  0.39977253  0.89775198     0.19060
H1596       H  0.50797844  0.45224384  0.05600985     0.19070
C1597       C  0.90406618  0.38732501  0.01777695    -0.06760
C1598       C  0.92074660  0.40659909  0.05628500    -0.17890
C1599       C  0.94247185  0.43384068  0.04371986     0.10440
C1600       C  0.94856219  0.44157794  0.99131687    -0.06690
C1601       C  0.93156997  0.42252383  0.95304516    -0.17920
C1602       C  0.90885104  0.39602052  0.96566249     0.10470
S1603       S  0.96180319  0.45735694  0.09642166    -0.32890
S1604       S  0.88616106  0.37493245  0.91332541    -0.32890
H1605       H  0.86132118  0.36033829  0.94282871     0.28480
H1606       H  0.97149034  0.48257753  0.07017260     0.28470
H1607       H  0.91698977  0.40031154  0.09630261     0.19060
H1608       H  0.93569535  0.42854957  0.91298579     0.19070
C1609       C  0.98271714  0.04138165  0.97580577    -0.06760
C1610       C  0.47950441  0.04597888  0.02772760    -0.17890
C1611       C  0.97230909  0.06544585  0.04258400     0.10440
C1612       C  0.96920218  0.08186582  0.00488134    -0.06690
C1613       C  0.97105183  0.07637034  0.95267384    -0.17920
C1614       C  0.97735051  0.05603095  0.93772569     0.10470
S1615       S  0.46705791  0.06802540  0.11044455    -0.32890
S1616       S  0.97877845  0.04939686  0.87027851    -0.32890
H1617       H  0.96806931  0.06565596  0.85180103     0.28480
H1618       H  0.44789620  0.07715847  0.10412608     0.28470
H1619       H  0.48216443  0.03384878  0.05711649     0.19060
H1620       H  0.96866334  0.08882136  0.92366356     0.19070
C1621       C  0.65625917  0.26277645  0.01100125    -0.06760
C1622       C  0.63089153  0.24655366  0.98305858    -0.17890
C1623       C  0.62602708  0.22313941  0.95383953     0.10440
C1624       C  0.64651618  0.21505493  0.95411311    -0.06690
C1625       C  0.67246104  0.23259327  0.97931432    -0.17920
C1626       C  0.67766339  0.25630398  0.00635602     0.10470
S1627       S  0.59327751  0.20448898  0.91777289    -0.32890
S1628       S  0.71160138  0.27628356  0.03787431    -0.32890
H1629       H  0.71187043  0.30141890  0.03884046     0.28480
H1630       H  0.60396612  0.19497218  0.87901263     0.28470
H1631       H  0.61416125  0.25109454  0.98637587     0.19060
H1632       H  0.68860198  0.22716075  0.98023374     0.19070
C1633       C  0.76002655  0.30713775  0.13945019    -0.06760
C1634       C  0.77044950  0.32373917  0.09508868    -0.17890
C1635       C  0.79435865  0.32780301  0.06948508     0.10440
C1636       C  0.80956132  0.31611882  0.08960158    -0.06690
C1637       C  0.79872823  0.29849920  0.13288698    -0.17920
C1638       C  0.77414083  0.29398883  0.15836116     0.10470
S1639       S  0.80436647  0.34829066  0.01130015    -0.32890
S1640       S  0.76322232  0.27276010  0.21565297    -0.32890
H1641       H  0.74213755  0.27776452  0.23224052     0.28480
H1642       H  0.81386922  0.33262266  0.98558408     0.28470
H1643       H  0.75997260  0.33419785  0.08054728     0.19060
H1644       H  0.81010202  0.28910902  0.14804466     0.19070
C1645       C  0.56923510  0.31651469  0.07826975    -0.06760
C1646       C  0.54673144  0.31466531  0.10727865    -0.17890
C1647       C  0.52938495  0.32368120  0.08721131     0.10440
C1648       C  0.53467630  0.33488892  0.03747621    -0.06690
C1649       C  0.55569359  0.33515669  0.00719179    -0.17920
C1650       C  0.57278599  0.32571626  0.02645696     0.10470
S1651       S  0.50061828  0.32094654  0.12493248    -0.32890
S1652       S  0.59828541  0.32519709  0.98354255    -0.32890
H1653       H  0.59544025  0.33996366  0.94264824     0.28480
H1654       H  0.00429445  0.30798946  0.16801707     0.28470
H1655       H  0.54348989  0.30745077  0.14667809     0.19060
H1656       H  0.55805554  0.34212804  0.96765737     0.19070
C1657       C  0.56630038  0.21352885  0.15243884    -0.06760
C1658       C  0.53871737  0.20598519  0.16830038    -0.17890
C1659       C  0.51414905  0.18564538  0.14215049     0.10440
C1660       C  0.51666521  0.17295297  0.09711643    -0.06690
C1661       C  0.54404406  0.17953384  0.08247492    -0.17920
C1662       C  0.56849953  0.19870133  0.11025812     0.10470
S1663       S  0.98034240  0.17639446  0.16929884    -0.32890
S1664       S  0.60160661  0.20327339  0.08884698    -0.32890
H1665       H  0.60925395  0.19905909  0.13820997     0.28480
H1666       H  0.96628383  0.14804109  0.15471089     0.28470
H1667       H  0.53613022  0.21620385  0.20144055     0.19060
H1668       H  0.54650200  0.16957461  0.04877163     0.19070
C1669       C  0.75064860  0.40278719  0.03203871    -0.06760
C1670       C  0.76936819  0.43094207  0.04498091    -0.17890
C1671       C  0.78627826  0.45045188  0.00768615     0.10440
C1672       C  0.78516568  0.44169775  0.95624794    -0.06690
C1673       C  0.76571767  0.41376602  0.94276776    -0.17920
C1674       C  0.74845018  0.39424013  0.97998639     0.10470
S1675       S  0.81044278  0.48591776  0.02866595    -0.32890
S1676       S  0.72584303  0.35839875  0.95931343    -0.32890
H1677       H  0.72946718  0.34690735  0.00454700     0.28480
H1678       H  0.80794548  0.49823039  0.98356510     0.28470
H1679       H  0.77062780  0.43788051  0.08441115     0.19060
H1680       H  0.76552868  0.40669642  0.90380368     0.19070
C1681       C  0.65889871  0.42199282  0.09069005    -0.06760
C1682       C  0.68223294  0.44827636  0.07877290    -0.17890
C1683       C  0.67879420  0.46707421  0.04936778     0.10440
C1684       C  0.65177925  0.45839223  0.02747364    -0.06690
C1685       C  0.62823253  0.43256181  0.04200962    -0.17920
C1686       C  0.63145621  0.41498516  0.07542206     0.10470
S1687       S  0.70934065  0.00212924  0.04398955    -0.32890
S1688       S  0.59982080  0.38497585  0.09993402    -0.32890
H1689       H  0.61132977  0.38447879  0.14796487     0.28480
H1690       H  0.69358319  0.01529198  0.04175525     0.28470
H1691       H  0.70314074  0.45434133  0.09319748     0.19060
H1692       H  0.60721330  0.42606478  0.02764803     0.19070
C1693       C  0.80119679  0.34734021  0.43503302    -0.06760
C1694       C  0.81132318  0.35801741  0.38543700    -0.17890
C1695       C  0.79317074  0.35693321  0.34644847     0.10440
C1696       C  0.76389191  0.34463257  0.35676727    -0.06690
C1697       C  0.75379067  0.33258986  0.40575904    -0.17920
C1698       C  0.77193156  0.33436531  0.44501270     0.10470
S1699       S  0.80905063  0.37256396  0.28569051    -0.32890
S1700       S  0.75743648  0.32265180  0.50880389    -0.32890
H1701       H  0.72862444  0.30685631  0.49423292     0.28480
H1702       H  0.79155765  0.34769631  0.25785549     0.28470
H1703       H  0.83373003  0.36760360  0.37705961     0.19060
H1704       H  0.73146038  0.32268692  0.41469193     0.19070
C1705       C  0.67376335  0.19705766  0.39062005    -0.06760
C1706       C  0.65624698  0.19135041  0.34738525    -0.17890
C1707       C  0.65528261  0.21265138  0.32151904     0.10440
C1708       C  0.67353309  0.24092065  0.33696927    -0.06690
C1709       C  0.69055225  0.24668992  0.38082014    -0.17920
C1710       C  0.69034527  0.22515112  0.40836473     0.10470
S1711       S  0.62909852  0.20200448  0.27087591    -0.32890
S1712       S  0.71014307  0.23493996  0.46759309    -0.32890
H1713       H  0.68941506  0.21095172  0.49373381     0.28480
H1714       H  0.62134327  0.22145621  0.28401375     0.28470
H1715       H  0.64295665  0.17000040  0.33372800     0.19060
H1716       H  0.70389457  0.26810691  0.39409902     0.19070
C1717       C  0.58434718  0.35977111  0.30954885    -0.06760
C1718       C  0.56528948  0.36574702  0.28579955    -0.17890
C1719       C  0.54259815  0.36423172  0.31353347     0.10440
C1720       C  0.53879610  0.35636922  0.36609156    -0.06690
C1721       C  0.55841349  0.35139352  0.38991399    -0.17920
C1722       C  0.58070331  0.35262842  0.36245104     0.10470
S1723       S  0.51753778  0.37035597  0.28057475    -0.32890
S1724       S  0.60280748  0.34374963  0.39803557    -0.32890
H1725       H  0.61148060  0.33416556  0.35668796     0.28480
H1726       H  0.53181084  0.37842819  0.23313769     0.28470
H1727       H  0.56748574  0.37036962  0.24502395     0.19060
H1728       H  0.55595960  0.34584659  0.43033626     0.19070
C1729       C  0.81644622  0.47817625  0.35314993    -0.06760
C1730       C  0.82305292  0.47731487  0.30120552    -0.17890
C1731       C  0.80151043  0.46274493  0.26402484     0.10440
C1732       C  0.77253716  0.44908171  0.27855137    -0.06690
C1733       C  0.76613263  0.45066613  0.33016703    -0.17920
C1734       C  0.78742390  0.46394364  0.36751002     0.10470
S1735       S  0.81226036  0.46253347  0.19862097    -0.32890
S1736       S  0.77586790  0.46005683  0.43354749    -0.32890
H1737       H  0.79981434  0.46090920  0.45451336     0.28480
H1738       H  0.78723320  0.45842619  0.17575647     0.28470
H1739       H  0.84508764  0.48849179  0.28933184     0.19060
H1740       H  0.74421034  0.43924136  0.34267849     0.19070
C1741       C  0.65377142  0.43568839  0.45828737    -0.06760
C1742       C  0.65795264  0.44048374  0.40564846    -0.17890
C1743       C  0.66557027  0.42528559  0.37416784     0.10440
C1744       C  0.66860293  0.40338812  0.39555462    -0.06690
C1745       C  0.66413045  0.39838305  0.44882074    -0.17920
C1746       C  0.65694334  0.41439243  0.48034955     0.10470
S1747       S  0.67067792  0.43486161  0.30648403    -0.32890
S1748       S  0.65187834  0.40650193  0.54806978    -0.32890
H1749       H  0.63397301  0.41685207  0.55720022     0.28480
H1750       H  0.66883424  0.45889039  0.30941327     0.28470
H1751       H  0.65554670  0.45684741  0.38917416     0.19060
H1752       H  0.66633340  0.38204434  0.46600860     0.19070
C1753       C  0.55814607  0.21254759  0.45002176    -0.06760
C1754       C  0.58110233  0.23711083  0.47025024    -0.17890
C1755       C  0.59527962  0.26120885  0.44070232     0.10440
C1756       C  0.58654032  0.26049121  0.38890026    -0.06690
C1757       C  0.56241833  0.23601196  0.36998229    -0.17920
C1758       C  0.54804280  0.21212583  0.40008804     0.10470
S1759       S  0.62435564  0.29152852  0.47204396    -0.32890
S1760       S  0.51757747  0.18169449  0.37192582    -0.32890
H1761       H  0.50255220  0.17039042  0.41785824     0.28480
H1762       H  0.61975226  0.31081689  0.44676862     0.28470
H1763       H  0.58791649  0.23748787  0.50961620     0.19060
H1764       H  0.55535959  0.23486740  0.33058538     0.19070
C1765       C  0.89666666  0.40674227  0.51270255    -0.06760
C1766       C  0.90755933  0.42386459  0.55645852    -0.17890
C1767       C  0.93356834  0.44946937  0.55509212     0.10440
C1768       C  0.94901360  0.45853733  0.50828694    -0.06690
C1769       C  0.93719776  0.44205179  0.46396295    -0.17920
C1770       C  0.91194342  0.41601165  0.46597362     0.10470
S1771       S  0.94558226  0.46840007  0.61530540    -0.32890
S1772       S  0.90138139  0.39495371  0.40813838    -0.32890
H1773       H  0.88917572  0.36908867  0.43354071     0.28480
H1774       H  0.97394062  0.48721386  0.60198970     0.28470
H1775       H  0.89575240  0.41712028  0.59214451     0.19060
H1776       H  0.94870802  0.44881192  0.42798995     0.19070
C1777       C  0.52934472  0.11618744  0.50469561    -0.06760
C1778       C  0.53580503  0.10562450  0.54776019    -0.17890
C1779       C  0.53092948  0.07868880  0.54768560     0.10440
C1780       C  0.52012393  0.06211686  0.50254999    -0.06690
C1781       C  0.51510707  0.07325534  0.45843512    -0.17920
C1782       C  0.51913739  0.10001880  0.45924657     0.10470
S1783       S  0.03763537  0.06700545  0.60781302    -0.32890
S1784       S  0.50911143  0.11232043  0.40372481    -0.32890
H1785       H  0.49976574  0.08842039  0.37275029     0.28480
H1786       H  0.02248771  0.03817693  0.59786477     0.28470
H1787       H  0.54339801  0.11806420  0.58274008     0.19060
H1788       H  0.50727611  0.06057221  0.42386851     0.19070
C1789       C  0.62151540  0.09813056  0.45665438    -0.06760
C1790       C  0.61745628  0.08547346  0.50500818    -0.17890
C1791       C  0.59086398  0.06280609  0.52049809     0.10440
C1792       C  0.56674497  0.05226855  0.48724411    -0.06690
C1793       C  0.57124180  0.06428276  0.43801177    -0.17920
C1794       C  0.59803289  0.08635312  0.42210269     0.10470
S1795       S  0.59030888  0.04944860  0.58361286    -0.32890
S1796       S  0.60091881  0.09748702  0.35612476    -0.32890
H1797       H  0.62950806  0.10547657  0.35037086     0.28480
H1798       H  0.56106787  0.03467189  0.58897655     0.28470
H1799       H  0.63508662  0.09391311  0.53196033     0.19060
H1800       H  0.55364105  0.05589227  0.41098800     0.19070
C1801       C  0.91110344  0.01439029  0.45070198    -0.06760
C1802       C  0.91996367  0.01908750  0.50272081    -0.17890
C1803       C  0.94479913  0.02044221  0.51965733     0.10440
C1804       C  0.96063602  0.01439514  0.48494622    -0.06690
C1805       C  0.95179605  0.00940691  0.43299712    -0.17920
C1806       C  0.92819407  0.01041489  0.41524817     0.10470
S1807       S  0.95477507  0.03126785  0.58556663    -0.32890
S1808       S  0.92243693  0.00821131  0.34665104    -0.32890
H1809       H  0.91373064  0.02769892  0.34555407     0.28480
H1810       H  0.97903548  0.02983971  0.58596124     0.28470
H1811       H  0.90749972  0.02207789  0.53117288     0.19060
H1812       H  0.96391441  0.00526076  0.40557798     0.19070
C1813       C  0.55292659  0.99358844  0.49923739    -0.06760
C1814       C  0.56762004  0.99784469  0.45276168    -0.17890
C1815       C  0.58779279  0.99002452  0.44735921     0.10440
C1816       C  0.59245435  0.97643767  0.48845572    -0.06690
C1817       C  0.57670877  0.47092214  0.53362537    -0.17920
C1818       C  0.55798598  0.48018770  0.54039364     0.10470
S1819       S  0.60815649  0.99969743  0.38880815    -0.32890
S1820       S  0.54424547  0.47660021  0.60474372    -0.32890
H1821       H  0.52936326  0.49025403  0.59790842     0.28480
H1822       H  0.61525646  0.97909594  0.39125401     0.28470
H1823       H  0.56357585  0.00763033  0.42071405     0.19060
H1824       H  0.58124934  0.46172107  0.56609963     0.19070
C1825       C  0.98926670  0.39956812  0.44974514    -0.06760
C1826       C  0.98476566  0.40275997  0.50189985    -0.17890
C1827       C  0.98647024  0.42686481  0.52038001     0.10440
C1828       C  0.99518934  0.44966493  0.48665633    -0.06690
C1829       C  0.49867735  0.44619484  0.43412992    -0.17920
C1830       C  0.49482813  0.42116898  0.41502873     0.10470
S1831       S  0.97662821  0.42579730  0.58675955    -0.32890
S1832       S  0.49605091  0.41790526  0.34614847    -0.32890
H1833       H  0.47701646  0.38876651  0.34473762     0.28480
H1834       H  0.98487663  0.45370011  0.59083694     0.28470
H1835       H  0.98037133  0.38646156  0.52929262     0.19060
H1836       H  0.50405167  0.46314577  0.40760908     0.19070
C1837       C  0.68623339  0.16204525  0.86987806    -0.06760
C1838       C  0.70113885  0.18034404  0.82920243    -0.17890
C1839       C  0.72496740  0.18169485  0.80729017     0.10440
C1840       C  0.73384928  0.16355156  0.82472770    -0.06690
C1841       C  0.71920446  0.14541257  0.86568017    -0.17920
C1842       C  0.69592815  0.14474042  0.88887793     0.10470
S1843       S  0.74385755  0.20801570  0.75882230    -0.32890
S1844       S  0.68050462  0.12215397  0.94384042    -0.32890
H1845       H  0.67465686  0.14026632  0.97104885     0.28480
H1846       H  0.77107062  0.21454220  0.77454013     0.28470
H1847       H  0.69435115  0.19401830  0.81464221     0.19060
H1848       H  0.72598614  0.13165756  0.87984932     0.19070
C1849       C  0.86122281  0.28896447  0.97057801    -0.06760
C1850       C  0.86592145  0.29787837  0.91918209    -0.17890
C1851       C  0.86313518  0.28019530  0.87873933     0.10440
C1852       C  0.85472562  0.25217234  0.88962919    -0.06690
C1853       C  0.85021116  0.24329947  0.94144603    -0.17920
C1854       C  0.85375154  0.26140585  0.98184956     0.10470
S1855       S  0.86873284  0.29391819  0.81393574    -0.32890
S1856       S  0.84899172  0.24822512  0.04664621    -0.32890
H1857       H  0.86800098  0.27416446  0.06992650     0.28480
H1858       H  0.88218053  0.32241421  0.82730214     0.28470
H1859       H  0.87083695  0.31871534  0.91035676     0.19060
H1860       H  0.84427575  0.22212706  0.95093773     0.19070
C1861       C  0.94099484  0.16840007  0.62126200    -0.06760
C1862       C  0.96871266  0.19074798  0.63025759    -0.17890
C1863       C  0.99188620  0.18954136  0.61320334     0.10440
C1864       C  0.98704921  0.16609853  0.58412844    -0.06690
C1865       C  0.95928609  0.14312453  0.57789411    -0.17920
C1866       C  0.93630558  0.14366036  0.59791767     0.10470
S1867       S  0.52689011  0.21823454  0.63031787    -0.32890
S1868       S  0.90198055  0.11178508  0.59446141    -0.32890
H1869       H  0.89090789  0.11606710  0.63980687     0.28480
H1870       H  0.54022272  0.20271098  0.62751546     0.28470
H1871       H  0.97227840  0.20903220  0.65134909     0.19060
H1872       H  0.95534440  0.12483229  0.55640083     0.19070
C1873       C  0.95807335  0.30268120  0.49148312    -0.06760
C1874       C  0.96494825  0.30674247  0.54428676    -0.17890
C1875       C  0.94705094  0.28729719  0.58132583     0.10440
C1876       C  0.92111753  0.26336189  0.56565307    -0.06690
C1877       C  0.91462458  0.25927225  0.51256276    -0.17920
C1878       C  0.93257193  0.27855779  0.47566236     0.10470
S1879       S  0.95893740  0.29393704  0.64739438    -0.32890
S1880       S  0.92062491  0.27210856  0.40956179    -0.32890
H1881       H  0.94767114  0.28580087  0.38711903     0.28480
H1882       H  0.94985251  0.26592303  0.65834828     0.28470
H1883       H  0.98429596  0.32552248  0.55681356     0.19060
H1884       H  0.89497600  0.24100809  0.49951256     0.19070
C1885       C  0.96395121  0.30353519  0.90429847    -0.06760
C1886       C  0.94194088  0.27742235  0.92053607    -0.17890
C1887       C  0.92929056  0.25455047  0.88724570     0.10440
C1888       C  0.93915342  0.25752482  0.83579105    -0.06690
C1889       C  0.96140339  0.28388871  0.81969853    -0.17920
C1890       C  0.97420272  0.30675082  0.85355057     0.10470
S1891       S  0.89996280  0.22326759  0.91420170    -0.32890
S1892       S  0.50347410  0.33932657  0.82977803    -0.32890
H1893       H  0.51930716  0.34765242  0.87580685     0.28480
H1894       H  0.88610122  0.21118637  0.86821813     0.28470
H1895       H  0.93464267  0.27484750  0.96002337     0.19060
H1896       H  0.96847133  0.28680095  0.78006203     0.19070
C1897       C  0.92843328  0.14443874  0.98715953    -0.06760
C1898       C  0.89922175  0.12364291  0.98339455    -0.17890
C1899       C  0.87986810  0.12768607  0.95445848     0.10440
C1900       C  0.88939387  0.15334102  0.92881865    -0.06690
C1901       C  0.91828036  0.17440050  0.93485012    -0.17920
C1902       C  0.93769673  0.17038823  0.96286355     0.10470
S1903       S  0.84416365  0.09827591  0.94688562    -0.32890
S1904       S  0.97494863  0.19738360  0.95976707    -0.32890
H1905       H  0.97120780  0.21898057  0.94232580     0.28480
H1906       H  0.83187454  0.11451505  0.94088481     0.28470
H1907       H  0.89155367  0.10359984  0.00161536     0.19060
H1908       H  0.92658702  0.19324418  0.91232049     0.19070
C1909       C  0.81996948  0.25884855  0.62829621    -0.06760
C1910       C  0.80979268  0.27527653  0.64814850    -0.17890
C1911       C  0.81508704  0.29974771  0.62270541     0.10440
C1912       C  0.83146425  0.30832935  0.57704740    -0.06690
C1913       C  0.84097633  0.29160612  0.55692462    -0.17920
C1914       C  0.83526839  0.26708522  0.58138710     0.10470
S1915       S  0.80043122  0.31896622  0.65047526    -0.32890
S1916       S  0.84888927  0.24786147  0.55009802    -0.32890
H1917       H  0.83341116  0.22314648  0.57777649     0.28480
H1918       H  0.81937527  0.34492523  0.62790924     0.28470
H1919       H  0.79845785  0.26952019  0.68435661     0.19060
H1920       H  0.85282467  0.29762944  0.52121666     0.19070
C1921       C  0.78352603  0.17265851  0.50801884    -0.06760
C1922       C  0.77220897  0.18939355  0.51956899    -0.17890
C1923       C  0.74473863  0.18143661  0.50468683     0.10440
C1924       C  0.72977138  0.15962567  0.46850098    -0.06690
C1925       C  0.74311848  0.14576613  0.44954742    -0.17920
C1926       C  0.76977573  0.15197846  0.46930032     0.10470
S1927       S  0.72851099  0.19697906  0.54042487    -0.32890
S1928       S  0.78562241  0.13365045  0.44302733    -0.32890
H1929       H  0.81349250  0.15357752  0.45861915     0.28480
H1930       H  0.70079254  0.17333027  0.53911833     0.28470
H1931       H  0.78234995  0.20538090  0.54916981     0.19060
H1932       H  0.73262965  0.12986250  0.42000068     0.19070
C1933       C  0.84601570  0.02322974  0.83957273    -0.06760
C1934       C  0.83642673  0.02011428  0.78871135    -0.17890
C1935       C  0.84288643  0.04352336  0.75896064     0.10440
C1936       C  0.85854926  0.07066025  0.78114554    -0.06690
C1937       C  0.86999108  0.07380694  0.83073967    -0.17920
C1938       C  0.86394286  0.05041913  0.86005260     0.10470
S1939       S  0.83127020  0.03858662  0.69251481    -0.32890
S1940       S  0.87918522  0.05659132  0.92379170    -0.32890
H1941       H  0.85688911  0.03223857  0.94630149     0.28480
H1942       H  0.81753060  0.00924242  0.69138391     0.28470
H1943       H  0.82406965  0.99929077  0.77231418     0.19060
H1944       H  0.88200198  0.09441114  0.84823708     0.19070
C1945       C  0.74810849  0.06824266  0.85287688    -0.06760
C1946       C  0.73088779  0.04184835  0.82927536    -0.17890
C1947       C  0.70438942  0.02213990  0.84943899     0.10440
C1948       C  0.69474403  0.02899265  0.89383475    -0.06690
C1949       C  0.71214258  0.05453512  0.91872432    -0.17920
C1950       C  0.73884675  0.07386680  0.89992865     0.10470
S1951       S  0.68375295  0.48906436  0.81630083    -0.32890
S1952       S  0.75955539  0.10463167  0.93944382    -0.32890
H1953       H  0.78416545  0.10323961  0.93637478     0.28480
H1954       H  0.65696397  0.48324827  0.83259570     0.28470
H1955       H  0.73749678  0.03677679  0.79378987     0.19060
H1956       H  0.70511512  0.05907557  0.95437756     0.19070
C1957       C  0.68544950  0.02072323  0.57044397    -0.06760
C1958       C  0.71170724  0.03911592  0.54811654    -0.17890
C1959       C  0.73093014  0.06441189  0.57199057     0.10440
C1960       C  0.72417305  0.07184486  0.61953077    -0.06690
C1961       C  0.69792237  0.05342891  0.64221702    -0.17920
C1962       C  0.67850078  0.02793675  0.61824125     0.10470
S1963       S  0.76445679  0.08610041  0.54087235    -0.32890
S1964       S  0.64566170  0.00506571  0.65137881    -0.32890
H1965       H  0.64118326  0.98001164  0.62994924     0.28480
H1966       H  0.76469383  0.11072631  0.55179461     0.28470
H1967       H  0.71696053  0.03411072  0.51104899     0.19060
H1968       H  0.69314878  0.05823562  0.67989257     0.19070
C1969       C  0.83471052  0.08494358  0.54684508    -0.06760
C1970       C  0.82321296  0.05659382  0.55887643    -0.17890
C1971       C  0.82965933  0.03966181  0.52970839     0.10440
C1972       C  0.84762885  0.05100650  0.48660385    -0.06690
C1973       C  0.85769719  0.07855067  0.47227379    -0.17920
C1974       C  0.85149740  0.09563024  0.50133361     0.10470
S1975       S  0.81427736  0.00382502  0.54984956    -0.32890
S1976       S  0.86649051  0.13078768  0.47762369    -0.32890
H1977       H  0.88707203  0.14244629  0.51701475     0.28480
H1978       H  0.83568652  0.99991089  0.53067530     0.28470
H1979       H  0.80975500  0.04762762  0.59225387     0.19060
H1980       H  0.87078582  0.08691655  0.43822135     0.19070
O1981       O  0.84235655  0.62877753  0.57227471    -0.87130
O1982       O  0.78522796  0.61521821  0.84303748    -0.87290
O1983       O  0.83233673  0.58651144  0.73957359    -0.88960
O1984       O  0.76417012  0.58633771  0.66885155    -0.87720
O1985       O  0.75090303  0.61841720  0.65507344    -0.87310
O1986       O  0.87725915  0.61970099  0.76614942    -0.88680
O1987       O  0.77844931  0.58400031  0.77963850    -0.87160
O1988       O  0.81965116  0.59270961  0.62891172    -0.86740
Zr1989     Zr  0.80998098  0.61038534  0.70873575     2.84310
O1990       O  0.79158948  0.63549936  0.74662801    -1.08720
O1991       O  0.85611986  0.64099220  0.68122766    -1.09450
C1992       C  0.83154530  0.60313065  0.58485761     1.05980
C1993       C  0.77264804  0.59042656  0.82385141     1.05920
C1994       C  0.85656675  0.59397282  0.75955700     1.08910
C1995       C  0.74733159  0.59365078  0.65113596     1.06690
H1996       H  0.83642637  0.62265825  0.80603155     0.32240
O1997       O  0.83727408  0.63545777  0.78032972    -1.30050
H1998       H  0.79869644  0.62957157  0.61812795     0.31920
O1999       O  0.80954770  0.64023098  0.64766373    -1.31350
O2000       O  0.83601717  0.70556645  0.86140279    -0.87120
O2001       O  0.88808588  0.71625060  0.58396049    -0.88620
O2002       O  0.88897262  0.65878850  0.84080384    -0.87200
O2003       O  0.75839530  0.66344381  0.75025477    -0.87250
O2004       O  0.78382697  0.66498466  0.59442093    -0.86960
O2005       O  0.91814866  0.67182988  0.69207575    -0.86760
O2006       O  0.91113137  0.74613324  0.76298693    -0.87140
O2007       O  0.84377316  0.74559185  0.68449295    -0.86600
O2008       O  0.91638762  0.71152164  0.79746301    -0.87660
O2009       O  0.79893083  0.71142678  0.65832663    -0.86820
O2010       O  0.85139365  0.65642885  0.88330566    -0.87220
O2011       O  0.89877623  0.66891642  0.61185889    -0.86940
O2012       O  0.82314868  0.67196436  0.55101137    -0.86590
O2013       O  0.77594205  0.66152630  0.82958548    -0.87000
O2014       O  0.86151518  0.74098942  0.80405052    -0.87300
O2015       O  0.89657727  0.74818391  0.64739164    -0.88630
Zr2016     Zr  0.82033108  0.66185383  0.81687079     2.83100
Zr2017     Zr  0.85537123  0.67071911  0.61850793     2.83500
Zr2018     Zr  0.88352382  0.66643560  0.75269260     2.84090
Zr2019     Zr  0.79057743  0.66499645  0.68462812     2.83360
Zr2020     Zr  0.86580045  0.72217190  0.72180433     2.84220
O2021       O  0.83655898  0.69558990  0.65420979    -1.09200
O2022       O  0.86526531  0.69221440  0.78466924    -1.08710
C2023       C  0.85041131  0.73165103  0.84880550     1.05950
C2024       C  0.90077196  0.74138214  0.60182426     1.08570
C2025       C  0.87488906  0.65587868  0.88183761     1.06130
C2026       C  0.75761223  0.66269273  0.80000090     1.06490
C2027       C  0.79814843  0.66912872  0.55309823     1.06070
C2028       C  0.91780768  0.67007588  0.64282722     1.05620
C2029       C  0.92187616  0.73704078  0.79547046     1.06050
C2030       C  0.82020137  0.73719054  0.66057267     1.05560
H2031       H  0.90419972  0.70926169  0.67809069     0.32240
O2032       O  0.88476987  0.69672404  0.68850345    -1.30300
H2033       H  0.81247670  0.70293315  0.76729471     0.32260
O2034       O  0.81973072  0.69192142  0.75337513    -1.31690
C2035       C  0.97891238  0.98287100  0.50527556     0.01650
C2036       C  0.00144728  0.97782666  0.50272901     0.01650
C2037       C  0.53020853  0.50034548  0.50176823     0.01650
C2038       C  0.53678055  0.52838674  0.49978679     0.01650
C2039       C  0.51375255  0.53314065  0.50046608     0.01650
C2040       C  0.98475930  0.51047513  0.50045836     0.01650
C2041       C  0.50942794  0.66674747  0.55290266     0.02490
C2042       C  0.51183119  0.64323261  0.54864967    -0.13660
C2043       C  0.52950356  0.64223206  0.51124249    -0.00010
C2044       C  0.54576351  0.66534414  0.47949159    -0.12180
C2045       C  0.54331370  0.68879922  0.48428161     0.02480
C2046       C  0.52518974  0.68941246  0.52043397    -0.11610
H2047       H  0.49891758  0.62516487  0.57272259     0.08080
H2048       H  0.55957253  0.66481952  0.45055688     0.05610
H2049       H  0.52231409  0.70710664  0.52127551     0.05450
C2050       C  0.64732155  0.95463420  0.48736763     0.02490
C2051       C  0.66816588  0.47599985  0.51927759    -0.13660
C2052       C  0.66405874  0.49710146  0.53874128    -0.00010
C2053       C  0.63999301  0.49744690  0.52443734    -0.12180
C2054       C  0.61891038  0.47630035  0.49394262     0.02480
C2055       C  0.62230277  0.95463543  0.47570000    -0.11610
H2056       H  0.68775541  0.47669158  0.52754246     0.08080
H2057       H  0.63726922  0.51418298  0.53822950     0.05610
H2058       H  0.60597193  0.93829360  0.45157673     0.05450
C2059       C  0.85473919  0.53410608  0.45396707     0.02490
C2060       C  0.87989819  0.53435576  0.46179729    -0.13660
C2061       C  0.88495661  0.51518810  0.43602418    -0.00010
C2062       C  0.86397780  0.49622520  0.40029123    -0.12180
C2063       C  0.83930789  0.49732301  0.39004997     0.02480
C2064       C  0.83546939  0.51680357  0.41660866    -0.11610
H2065       H  0.89514980  0.54917743  0.48934584     0.08080
H2066       H  0.86627033  0.98025280  0.38168704     0.05610
H2067       H  0.81673820  0.51791609  0.40945677     0.05450
C2068       C  0.51485019  0.85333804  0.39752237     0.02490
C2069       C  0.99700845  0.82855344  0.42535527    -0.13660
C2070       C  0.97503189  0.82641235  0.45616223    -0.00010
C2071       C  0.97070044  0.84872070  0.45815740    -0.12180
C2072       C  0.98977854  0.87431201  0.43482276     0.02480
C2073       C  0.51186078  0.87645281  0.40456451    -0.11610
H2074       H  0.00040815  0.81122707  0.42357448     0.08080
H2075       H  0.95346604  0.84670719  0.48142744     0.05610
H2076       H  0.52764301  0.89642737  0.38844447     0.05450
C2077       C  0.70172282  0.65352574  0.44799413     0.02490
C2078       C  0.67604300  0.62787334  0.45720087    -0.13660
C2079       C  0.64939064  0.62470252  0.44523716    -0.00010
C2080       C  0.64919462  0.64801926  0.42564114    -0.12180
C2081       C  0.67455659  0.67333435  0.41477274     0.02480
C2082       C  0.70056975  0.67551497  0.42486487    -0.11610
H2083       H  0.67681206  0.61084359  0.47498153     0.08080
H2084       H  0.62909444  0.64659770  0.41926985     0.05610
H2085       H  0.72021435  0.69486691  0.41632443     0.05450
C2086       C  0.83679660  0.83276367  0.54598500     0.02490
C2087       C  0.86288797  0.85853544  0.54898498    -0.13660
C2088       C  0.86841801  0.88048002  0.51525288    -0.00010
C2089       C  0.84720768  0.87694580  0.48096585    -0.12180
C2090       C  0.82181006  0.85108431  0.47582665     0.02480
C2091       C  0.81705285  0.82889038  0.50783844    -0.11610
H2092       H  0.87912445  0.86107554  0.57585119     0.08080
H2093       H  0.85107482  0.89424420  0.45657529     0.05610
H2094       H  0.79826407  0.80830762  0.50245525     0.05450
O2095       O  0.63127087  0.79699920  0.36244032    -0.87130
O2096       O  0.61590188  0.82500041  0.08465417    -0.87290
O2097       O  0.59335332  0.83028442  0.26075549    -0.88960
O2098       O  0.58533790  0.75663572  0.19645676    -0.87720
O2099       O  0.61693205  0.74470194  0.16980316    -0.87310
O2100       O  0.63010893  0.87582888  0.27206340    -0.88680
O2101       O  0.58589627  0.80547214  0.15306785    -0.87160
O2102       O  0.59401481  0.78145471  0.30665222    -0.86740
Zr2103     Zr  0.61346995  0.80461854  0.22490468     2.84310
O2104       O  0.63498447  0.79706465  0.15360065    -1.08720
O2105       O  0.64448180  0.84050004  0.28178070    -1.09450
C2106       C  0.60487169  0.78166915  0.35087573     1.05980
C2107       C  0.59148945  0.81457734  0.10640593     1.05920
C2108       C  0.60385559  0.85549170  0.27743181     1.08910
C2109       C  0.59125985  0.73957446  0.17511868     1.06690
H2110       H  0.62962640  0.85320795  0.17061460     0.32240
O2111       O  0.64190064  0.84686190  0.18217405    -1.29670
H2112       H  0.63091260  0.77079019  0.27595592     0.31920
O2113       O  0.64207435  0.78861861  0.25903902    -1.31350
O2114       O  0.70536352  0.86858721  0.06093899    -0.87120
O2115       O  0.71939399  0.83865973  0.34203876    -0.88620
O2116       O  0.66974321  0.90764146  0.16732955    -0.87200
O2117       O  0.65888336  0.76988119  0.09922490    -0.87250
O2118       O  0.67276642  0.76150529  0.25882653    -0.86960
O2119       O  0.68993992  0.89935567  0.32159160    -0.86760
O2120       O  0.75490141  0.90915234  0.22648136    -0.87140
O2121       O  0.74714518  0.83485653  0.18119767    -0.86600
O2122       O  0.72393453  0.92259429  0.25042294    -0.87660
O2123       O  0.71211214  0.78917355  0.16896710    -0.86820
O2124       O  0.66079903  0.88113211  0.09365078    -0.87220
O2125       O  0.66847637  0.86051599  0.36984000    -0.86940
O2126       O  0.67676007  0.78502307  0.33344444    -0.86590
O2127       O  0.65795024  0.80315592  0.04975801    -0.87000
O2128       O  0.74278821  0.88472482  0.11742080    -0.87300
O2129       O  0.74877220  0.85188416  0.27320201    -0.88630
Zr2130     Zr  0.66379968  0.83985964  0.11169241     2.83100
Zr2131     Zr  0.67326019  0.82596140  0.31375376     2.83500
Zr2132     Zr  0.67511377  0.88210763  0.23677467     2.84090
Zr2133     Zr  0.66578596  0.78475787  0.18756556     2.83360
Zr2134     Zr  0.72546935  0.86082064  0.20092254     2.84220
O2135       O  0.67865555  0.82812790  0.22368119    -1.09200
O2136       O  0.69798735  0.87671408  0.16526028    -1.08710
C2137       C  0.73185785  0.88382973  0.07261746     1.05950
C2138       C  0.74297172  0.84522594  0.32107224     1.08570
C2139       C  0.66363300  0.90235625  0.11906877     1.06130
C2140       C  0.65732750  0.77983464  0.05573058     1.06490
C2141       C  0.67480078  0.76424918  0.30799675     1.06070
C2142       C  0.67634622  0.88656545  0.36154259     1.05620
C2143       C  0.74920023  0.92641222  0.24737602     1.06050
C2144       C  0.73829626  0.80975644  0.16727871     1.05560
H2145       H  0.71892342  0.88040197  0.29796778     0.32240
O2146       O  0.70494369  0.86780126  0.27324452    -1.30300
H2147       H  0.70523138  0.82399530  0.11382820     0.32260
O2148       O  0.69517452  0.82612001  0.14205520    -1.31690
C2149       C  0.94908549  0.63785324  0.01220830     0.02490
C2150       C  0.94835305  0.61296094  0.99909270    -0.13660
C2151       C  0.96855735  0.60729997  0.01932695    -0.00010
C2152       C  0.99013304  0.62709732  0.05154077    -0.12180
C2153       C  0.99164362  0.65191780  0.06560944     0.02480
C2154       C  0.97059677  0.65686547  0.04679813    -0.11610
H2155       H  0.93247345  0.59826061  0.97234067     0.08080
H2156       H  0.50627920  0.62322000  0.06544381     0.05610
H2157       H  0.97152372  0.67593654  0.05781173     0.05450
C2158       C  0.98933975  0.51923133  0.96434460     0.01650
C2159       C  0.96704248  0.99103632  0.96537749     0.01650
C2160       C  0.97232144  0.96963488  0.97557669     0.01650
C2161       C  0.50016915  0.97520893  0.97233602     0.01650
C2162       C  0.52292019  0.00315200  0.96503656     0.01650
C2163       C  0.51767187  0.52544714  0.96347871     0.01650
C2164       C  0.64796669  0.97555667  0.98893856     0.02490
C2165       C  0.66797158  0.98841690  0.94976894    -0.13660
C2166       C  0.66843157  0.50922526  0.92006719    -0.00010
C2167       C  0.64715289  0.51538286  0.92560995    -0.12180
C2168       C  0.62509753  0.00058166  0.96084904     0.02480
C2169       C  0.62554259  0.98046290  0.99245256    -0.11610
H2170       H  0.68491678  0.98422071  0.94561467     0.08080
H2171       H  0.64832888  0.53233472  0.90354115     0.05610
H2172       H  0.60896584  0.96925172  0.02056556     0.05450
C2173       C  0.51467176  0.84033142  0.01136616     0.02490
C2174       C  0.99557534  0.81960614  0.97809820    -0.13660
C2175       C  0.97946184  0.82474635  0.94423810    -0.00010
C2176       C  0.98041740  0.85018033  0.94674698    -0.12180
C2177       C  0.99926500  0.87141852  0.98146288     0.02480
C2178       C  0.51710719  0.86648322  0.01272923    -0.11610
H2179       H  0.99486167  0.79990966  0.97579652     0.08080
H2180       H  0.96710343  0.85357082  0.92086876     0.05610
H2181       H  0.53338822  0.88302785  0.03655033     0.05450
C2182       C  0.64157633  0.68803430  0.93233369     0.02490
C2183       C  0.66379686  0.68752973  0.90657145    -0.13660
C2184       C  0.66136294  0.66215430  0.89217758    -0.00010
C2185       C  0.63540728  0.63708797  0.90004147    -0.12180
C2186       C  0.61310211  0.63698568  0.92592174     0.02480
C2187       C  0.61647477  0.66235444  0.94305556    -0.11610
H2188       H  0.68358522  0.70697718  0.89941626     0.08080
H2189       H  0.63276765  0.61744654  0.88731026     0.05610
H2190       H  0.59971414  0.66196203  0.96526289     0.05450
C2191       C  0.84003381  0.99806334  0.86823234     0.02490
C2192       C  0.81339601  0.97993193  0.89098255    -0.13660
C2193       C  0.80990085  0.95800767  0.92271351    -0.00010
C2194       C  0.83242367  0.95376137  0.92974065    -0.12180
C2195       C  0.85896809  0.97247939  0.90928726     0.02480
C2196       C  0.86251607  0.99400118  0.87723794    -0.11610
H2197       H  0.79626058  0.98382322  0.88657419     0.08080
H2198       H  0.82991428  0.93720871  0.95489972     0.05610
H2199       H  0.88335661  0.50879417  0.86187786     0.05450
C2200       C  0.86243279  0.80878702  0.00973801     0.02490
C2201       C  0.83848837  0.80188018  0.03963522    -0.13660
C2202       C  0.83688995  0.82279676  0.06628797    -0.00010
C2203       C  0.85951618  0.85087871  0.06258329    -0.12180
C2204       C  0.88319990  0.85790161  0.03186041     0.02480
C2205       C  0.88521194  0.83658250  0.00838342    -0.11610
H2206       H  0.82011488  0.78077131  0.03852559     0.08080
H2207       H  0.85762787  0.86736193  0.08018817     0.05610
H2208       H  0.90343318  0.84205541  0.98439280     0.05450
C2209       C  0.93824096  0.98361318  0.95129858    -0.06760
C2210       C  0.92010332  0.98210414  0.99013841    -0.17890
C2211       C  0.89301554  0.97656713  0.97803099     0.10440
C2212       C  0.88411290  0.97217490  0.92593512    -0.06690
C2213       C  0.90158109  0.97167586  0.88776481    -0.17920
C2214       C  0.92865975  0.97756563  0.89968271     0.10470
S2215       S  0.87126882  0.97749161  0.02884973    -0.32890
S2216       S  0.94958393  0.47724367  0.84674956    -0.32890
H2217       H  0.97636685  0.49653097  0.86730874     0.28480
H2218       H  0.88850910  0.97908522  0.07030694     0.28470
H2219       H  0.92765615  0.98623294  0.02958851     0.19060
H2220       H  0.89453505  0.46803505  0.84794423     0.19070
C2221       C  0.54133011  0.55490856  0.95644175    -0.06760
C2222       C  0.54616131  0.56603273  0.90660600    -0.17890
C2223       C  0.56835962  0.59324589  0.89624698     0.10440
C2224       C  0.58673653  0.60989453  0.93642419    -0.06690
C2225       C  0.58145756  0.59923913  0.98671681    -0.17920
C2226       C  0.55885001  0.57203255  0.99732716     0.10470
S2227       S  0.57229090  0.60542714  0.83083252    -0.32890
S2228       S  0.55402100  0.56083148  0.06361489    -0.32890
H2229       H  0.52807382  0.53539100  0.05846929     0.28480
H2230       H  0.58447512  0.63387460  0.84337963     0.28470
H2231       H  0.53258415  0.55333039  0.87519925     0.19060
H2232       H  0.59549952  0.61198856  0.01773451     0.19070
C2233       C  0.55204490  0.00854231  0.96277613    -0.06760
C2234       C  0.56488928  0.50854869  0.00938802    -0.17890
C2235       C  0.59000478  0.50829416  0.01024330     0.10440
C2236       C  0.60157042  0.00598355  0.96333593    -0.06690
C2237       C  0.58956137  0.00768429  0.91674634    -0.17920
C2238       C  0.56537444  0.00955691  0.91584277     0.10470
S2239       S  0.60645694  0.51185305  0.07217209    -0.32890
S2240       S  0.55294401  0.01260435  0.85322693    -0.32890
H2241       H  0.52700601  0.00918342  0.86790580     0.28480
H2242       H  0.63443829  0.52570222  0.05341981     0.28470
H2243       H  0.55491422  0.50818195  0.04547233     0.19060
H2244       H  0.59852751  0.00659100  0.88041093     0.19070
C2245       C  0.00203736  0.89935222  0.98077255    -0.06760
C2246       C  0.00215923  0.91080424  0.93275300    -0.17890
C2247       C  0.00214549  0.93557057  0.92853305     0.10440
C2248       C  0.50450077  0.95105418  0.97341667    -0.06690
C2249       C  0.50653717  0.94077217  0.02139970    -0.17920
C2250       C  0.00414474  0.91469610  0.02582790     0.10470
S2251       S  0.99754951  0.94470817  0.86436075    -0.32890
S2252       S  0.50116978  0.90132026  0.09004371    -0.32890
H2253       H  0.98109617  0.87337239  0.07689395     0.28480
H2254       H  0.98866036  0.96283225  0.87835851     0.28470
H2255       H  0.00118444  0.89977253  0.89775197     0.19060
H2256       H  0.50797844  0.95224405  0.05600949     0.19070
C2257       C  0.90406633  0.88732507  0.01777698    -0.06760
C2258       C  0.92074674  0.90659919  0.05628500    -0.17890
C2259       C  0.94247196  0.93384078  0.04371980     0.10440
C2260       C  0.94856226  0.94157802  0.99131679    -0.06690
C2261       C  0.93157004  0.92252388  0.95304512    -0.17920
C2262       C  0.90885115  0.89602056  0.96566250     0.10470
S2263       S  0.96180329  0.95735708  0.09642155    -0.32890
S2264       S  0.88616117  0.87493245  0.91332547    -0.32890
H2265       H  0.86132131  0.86033828  0.94282881     0.28480
H2266       H  0.97149042  0.98257766  0.07017244     0.28470
H2267       H  0.91698993  0.90031166  0.09630262     0.19060
H2268       H  0.93569540  0.92854960  0.91298574     0.19070
C2269       C  0.98271716  0.54138162  0.97580590    -0.06760
C2270       C  0.47950447  0.54597888  0.02772780    -0.17890
C2271       C  0.97230909  0.56544585  0.04258404     0.10440
C2272       C  0.96920220  0.58186580  0.00488133    -0.06690
C2273       C  0.97105185  0.57637030  0.95267385    -0.17920
C2274       C  0.97735054  0.55603091  0.93772577     0.10470
S2275       S  0.46705805  0.56802559  0.11044453    -0.32890
S2276       S  0.97877850  0.54939679  0.87027861    -0.32890
H2277       H  0.96806938  0.56565590  0.85180106     0.28480
H2278       H  0.44789636  0.57715868  0.10412596     0.28470
H2279       H  0.48216451  0.53384883  0.05711679     0.19060
H2280       H  0.96866338  0.58882132  0.92366354     0.19070
C2281       C  0.65625883  0.76277679  0.01100055    -0.06760
C2282       C  0.63089081  0.74655325  0.98305932    -0.17890
C2283       C  0.62602640  0.72313888  0.95384078     0.10440
C2284       C  0.64651597  0.71505499  0.95411351    -0.06690
C2285       C  0.67246117  0.73259407  0.97931317    -0.17920
C2286       C  0.67766343  0.75630492  0.00635430     0.10470
S2287       S  0.59327627  0.70448754  0.91777594    -0.32890
S2288       S  0.71160184  0.77628536  0.03787086    -0.32890
H2289       H  0.71186997  0.80142020  0.03883832     0.28480
H2290       H  0.60396464  0.69497077  0.87901518     0.28470
H2291       H  0.61416023  0.75109366  0.98637745     0.19060
H2292       H  0.68860247  0.72716204  0.98023200     0.19070
C2293       C  0.76002661  0.80713779  0.13944973    -0.06760
C2294       C  0.77044953  0.82373903  0.09508801    -0.17890
C2295       C  0.79435874  0.82780286  0.06948465     0.10440
C2296       C  0.80956152  0.81611889  0.08960165    -0.06690
C2297       C  0.79872851  0.79849952  0.13288736    -0.17920
C2298       C  0.77414104  0.79398913  0.15836128     0.10470
S2299       S  0.80436654  0.84829025  0.01129940    -0.32890
S2300       S  0.76322272  0.77276081  0.21565363    -0.32890
H2301       H  0.74213657  0.77776369  0.23223905     0.28480
H2302       H  0.81386935  0.83262218  0.98558378     0.28470
H2303       H  0.75997259  0.83419760  0.08054629     0.19060
H2304       H  0.81010242  0.78910955  0.14804548     0.19070
C2305       C  0.56923505  0.81651494  0.07826997    -0.06760
C2306       C  0.54673149  0.81466570  0.10727900    -0.17890
C2307       C  0.52938495  0.82368152  0.08721164     0.10440
C2308       C  0.53467617  0.83488905  0.03747639    -0.06690
C2309       C  0.55569337  0.83515670  0.00719188    -0.17920
C2310       C  0.57278581  0.82571633  0.02645708     0.10470
S2311       S  0.50061842  0.82094703  0.12493296    -0.32890
S2312       S  0.59828508  0.82519696  0.98354260    -0.32890
H2313       H  0.59543977  0.83996331  0.94264807     0.28480
H2314       H  0.00429448  0.80798958  0.16801730     0.28470
H2315       H  0.54349006  0.80745130  0.14667853     0.19060
H2316       H  0.55805522  0.84212792  0.96765739     0.19070
C2317       C  0.56630050  0.71352899  0.15243841    -0.06760
C2318       C  0.53871748  0.70598545  0.16829966    -0.17890
C2319       C  0.51414919  0.68564561  0.14214976     0.10440
C2320       C  0.51666539  0.67295307  0.09711592    -0.06690
C2321       C  0.54404424  0.67953381  0.08247473    -0.17920
C2322       C  0.56849968  0.69870131  0.11025802     0.10470
S2323       S  0.98034243  0.67639454  0.16929859    -0.32890
S2324       S  0.60160674  0.70327306  0.08884754    -0.32890
H2325       H  0.60925390  0.69905897  0.13821084     0.28480
H2326       H  0.96628387  0.64804116  0.15471073     0.28470
H2327       H  0.53613029  0.71620420  0.20143963     0.19060
H2328       H  0.54650222  0.66957448  0.04877164     0.19070
C2329       C  0.75064858  0.90278754  0.03203841    -0.06760
C2330       C  0.76936834  0.93094236  0.04498071    -0.17890
C2331       C  0.78627846  0.95045217  0.00768598     0.10440
C2332       C  0.78516576  0.94169808  0.95624771    -0.06690
C2333       C  0.76571755  0.91376642  0.94276741    -0.17920
C2334       C  0.74845000  0.89424055  0.97998600     0.10470
S2335       S  0.81044315  0.98591800  0.02866584    -0.32890
S2336       S  0.72584259  0.85839926  0.95931285    -0.32890
H2337       H  0.72946713  0.84690785  0.00454601     0.28480
H2338       H  0.80794597  0.99823072  0.98356500     0.28470
H2339       H  0.77062807  0.93788077  0.08441101     0.19060
H2340       H  0.76552844  0.90669685  0.90380326     0.19070
C2341       C  0.65889873  0.92199320  0.09069067    -0.06760
C2342       C  0.68223293  0.94827681  0.07877380    -0.17890
C2343       C  0.67879418  0.96707465  0.04936868     0.10440
C2344       C  0.65177927  0.95839262  0.02747431    -0.06690
C2345       C  0.62823257  0.93256215  0.04201010    -0.17920
C2346       C  0.63145624  0.91498548  0.07542249     0.10470
S2347       S  0.70934072  0.50212874  0.04398849    -0.32890
S2348       S  0.59982082  0.88497604  0.09993408    -0.32890
H2349       H  0.61132971  0.88447888  0.14796497     0.28480
H2350       H  0.69358334  0.51529157  0.04175453     0.28470
H2351       H  0.70314072  0.95434182  0.09319852     0.19060
H2352       H  0.60721336  0.92606508  0.02764834     0.19070
C2353       C  0.80119689  0.84734019  0.43503260    -0.06760
C2354       C  0.81132332  0.85801741  0.38543659    -0.17890
C2355       C  0.79317089  0.85693320  0.34644802     0.10440
C2356       C  0.76389205  0.84463254  0.35676675    -0.06690
C2357       C  0.75379079  0.83258979  0.40575849    -0.17920
C2358       C  0.77193166  0.83436526  0.44501220     0.10470
S2359       S  0.80905080  0.87256395  0.28569007    -0.32890
S2360       S  0.75743653  0.82265174  0.50880336    -0.32890
H2361       H  0.72862450  0.80685621  0.49423231     0.28480
H2362       H  0.79155775  0.84769633  0.25785500     0.28470
H2363       H  0.83373017  0.86760361  0.37705926     0.19060
H2364       H  0.73146049  0.82268683  0.41469133     0.19070
C2365       C  0.67376344  0.69705757  0.39061905    -0.06760
C2366       C  0.65624721  0.69135035  0.34738405    -0.17890
C2367       C  0.65528289  0.71265133  0.32151776     0.10440
C2368       C  0.67353327  0.74092059  0.33696818    -0.06690
C2369       C  0.69055231  0.74668983  0.38081921    -0.17920
C2370       C  0.69034529  0.72515102  0.40836383     0.10470
S2371       S  0.62909897  0.70200445  0.27087432    -0.32890
S2372       S  0.71014293  0.73493981  0.46759236    -0.32890
H2373       H  0.68941485  0.71095156  0.49373295     0.28480
H2374       H  0.62134355  0.72145606  0.28401213     0.28470
H2375       H  0.64295694  0.67000034  0.33372672     0.19060
H2376       H  0.70389457  0.76810680  0.39409822     0.19070
C2377       C  0.58434729  0.85977112  0.30954912    -0.06760
C2378       C  0.56528968  0.86574715  0.28579984    -0.17890
C2379       C  0.54259832  0.86423181  0.31353371     0.10440
C2380       C  0.53879617  0.85636919  0.36609174    -0.06690
C2381       C  0.55841348  0.85139336  0.38991415    -0.17920
C2382       C  0.58070331  0.85262827  0.36245124     0.10470
S2383       S  0.51753803  0.87035618  0.28057497    -0.32890
S2384       S  0.60280736  0.84374929  0.39803573    -0.32890
H2385       H  0.61148077  0.83416557  0.35668802     0.28480
H2386       H  0.53181117  0.87842848  0.23313799     0.28470
H2387       H  0.56748601  0.87036985  0.24502428     0.19060
H2388       H  0.55595950  0.84584633  0.43033637     0.19070
C2389       C  0.81644636  0.97817623  0.35314995    -0.06760
C2390       C  0.82305305  0.97731489  0.30120552    -0.17890
C2391       C  0.80151055  0.96274498  0.26402485     0.10440
C2392       C  0.77253729  0.94908175  0.27855140    -0.06690
C2393       C  0.76613277  0.95066613  0.33016709    -0.17920
C2394       C  0.78742404  0.96394360  0.36751006     0.10470
S2395       S  0.81226047  0.96253357  0.19862094    -0.32890
S2396       S  0.77586807  0.96005676  0.43354756    -0.32890
H2397       H  0.79981453  0.96090915  0.45451338     0.28480
H2398       H  0.78723332  0.95842633  0.17575650     0.28470
H2399       H  0.84508777  0.98849182  0.28933183     0.19060
H2400       H  0.74421048  0.93924135  0.34267857     0.19070
C2401       C  0.65377138  0.93568819  0.45828728    -0.06760
C2402       C  0.65795274  0.94048362  0.40564841    -0.17890
C2403       C  0.66557040  0.92528547  0.37416784     0.10440
C2404       C  0.66860295  0.90338793  0.39555462    -0.06690
C2405       C  0.66413031  0.89838278  0.44882071    -0.17920
C2406       C  0.65694317  0.91439215  0.48034946     0.10470
S2407       S  0.67067830  0.93486162  0.30648409    -0.32890
S2408       S  0.65187799  0.90650156  0.54806965    -0.32890
H2409       H  0.63397276  0.91685182  0.55720000     0.28480
H2410       H  0.66883419  0.95889016  0.30941315     0.28470
H2411       H  0.65554691  0.95684735  0.38917412     0.19060
H2412       H  0.66633318  0.88204402  0.46600856     0.19070
C2413       C  0.55814609  0.71254761  0.45002159    -0.06760
C2414       C  0.58110243  0.73711081  0.47025001    -0.17890
C2415       C  0.59527979  0.76120880  0.44070204     0.10440
C2416       C  0.58654047  0.76049118  0.38890001    -0.06690
C2417       C  0.56241841  0.73601197  0.36998209    -0.17920
C2418       C  0.54804282  0.71212587  0.40008788     0.10470
S2419       S  0.62435593  0.79152841  0.47204362    -0.32890
S2420       S  0.51757742  0.68169457  0.37192573    -0.32890
H2421       H  0.50255217  0.67039052  0.41785818     0.28480
H2422       H  0.61975268  0.81081687  0.44676831     0.28470
H2423       H  0.58791660  0.73748783  0.50961595     0.19060
H2424       H  0.55535966  0.73486743  0.33058519     0.19070
C2425       C  0.89666670  0.90674230  0.51270244    -0.06760
C2426       C  0.90755936  0.92386461  0.55645843    -0.17890
C2427       C  0.93356839  0.94946936  0.55509210     0.10440
C2428       C  0.94901368  0.95853733  0.50828696    -0.06690
C2429       C  0.93719785  0.94205182  0.46396294    -0.17920
C2430       C  0.91194350  0.91601169  0.46597354     0.10470
S2431       S  0.94558229  0.96840004  0.61530541    -0.32890
S2432       S  0.90138151  0.89495377  0.40813829    -0.32890
H2433       H  0.88917584  0.86908872  0.43354060     0.28480
H2434       H  0.97394065  0.98721385  0.60198975     0.28470
H2435       H  0.89575241  0.91712029  0.59214441     0.19060
H2436       H  0.94870813  0.94881196  0.42798996     0.19070
C2437       C  0.52934464  0.61618746  0.50469557    -0.06760
C2438       C  0.53580492  0.60562451  0.54776015    -0.17890
C2439       C  0.53092936  0.57868880  0.54768557     0.10440
C2440       C  0.52012382  0.56211688  0.50254995    -0.06690
C2441       C  0.51510697  0.57325536  0.45843507    -0.17920
C2442       C  0.51913730  0.60001883  0.45924652     0.10470
S2443       S  0.03763522  0.56700542  0.60781300    -0.32890
S2444       S  0.50911136  0.61232047  0.40372475    -0.32890
H2445       H  0.49976565  0.58842042  0.37275025     0.28480
H2446       H  0.02248758  0.53817691  0.59786471     0.28470
H2447       H  0.54339790  0.61806421  0.58274005     0.19060
H2448       H  0.50727601  0.56057223  0.42386846     0.19070
C2449       C  0.62151529  0.59813057  0.45665402    -0.06760
C2450       C  0.61745619  0.58547354  0.50500789    -0.17890
C2451       C  0.59086389  0.56280619  0.52049789     0.10440
C2452       C  0.56674487  0.55226859  0.48724394    -0.06690
C2453       C  0.57124167  0.56428275  0.43801155    -0.17920
C2454       C  0.59803275  0.58635308  0.42210237     0.10470
S2455       S  0.59030884  0.54944878  0.58361272    -0.32890
S2456       S  0.60091865  0.59748685  0.35612436    -0.32890
H2457       H  0.62950788  0.60547633  0.35037044     0.28480
H2458       H  0.56106783  0.53467199  0.58897640     0.28470
H2459       H  0.63508653  0.59391323  0.53196003     0.19060
H2460       H  0.55364090  0.55589221  0.41098780     0.19070
C2461       C  0.91110331  0.51439028  0.45070196    -0.06760
C2462       C  0.91996355  0.51908749  0.50272078    -0.17890
C2463       C  0.94479901  0.52044220  0.51965729     0.10440
C2464       C  0.96063590  0.51439512  0.48494617    -0.06690
C2465       C  0.95179591  0.50940689  0.43299708    -0.17920
C2466       C  0.92819393  0.51041487  0.41524814     0.10470
S2467       S  0.95477495  0.53126784  0.58556659    -0.32890
S2468       S  0.92243678  0.50821128  0.34665101    -0.32890
H2469       H  0.91373050  0.52769889  0.34555405     0.28480
H2470       H  0.97903536  0.52983967  0.58596119     0.28470
H2471       H  0.90749960  0.52207788  0.53117286     0.19060
H2472       H  0.96391426  0.50526073  0.40557792     0.19070
C2473       C  0.55292652  0.49358851  0.49923738    -0.06760
C2474       C  0.56761998  0.49784473  0.45276168    -0.17890
C2475       C  0.58779274  0.49002459  0.44735926     0.10440
C2476       C  0.59245432  0.47643777  0.48845583    -0.06690
C2477       C  0.57670880  0.97092202  0.53362528    -0.17920
C2478       C  0.55798602  0.98018760  0.54039360     0.10470
S2479       S  0.60815646  0.49969750  0.38880822    -0.32890
S2480       S  0.54424551  0.97660006  0.60474368    -0.32890
H2481       H  0.52936334  0.99025392  0.59790846     0.28480
H2482       H  0.61525643  0.47909601  0.39125411     0.28470
H2483       H  0.56357578  0.50763035  0.42071401     0.19060
H2484       H  0.58124937  0.96172093  0.56609950     0.19070
C2485       C  0.98926673  0.89956808  0.44974523    -0.06760
C2486       C  0.98476568  0.90275994  0.50189993    -0.17890
C2487       C  0.98647028  0.92686479  0.52038008     0.10440
C2488       C  0.99518940  0.94966492  0.48665640    -0.06690
C2489       C  0.49867741  0.94619481  0.43412997    -0.17920
C2490       C  0.49482819  0.92116895  0.41502878     0.10470
S2491       S  0.97662825  0.92579730  0.58675961    -0.32890
S2492       S  0.49605101  0.91790525  0.34614852    -0.32890
H2493       H  0.47701655  0.88876650  0.34473764     0.28480
H2494       H  0.98487670  0.95370012  0.59083701     0.28470
H2495       H  0.98037134  0.88646153  0.52929270     0.19060
H2496       H  0.50405175  0.96314575  0.40760913     0.19070
C2497       C  0.68623353  0.66204533  0.86987925    -0.06760
C2498       C  0.70113869  0.68034391  0.82920317    -0.17890
C2499       C  0.72496718  0.68169472  0.80729061     0.10440
C2500       C  0.73384929  0.66355163  0.82472827    -0.06690
C2501       C  0.71920476  0.64541286  0.86568118    -0.17920
C2502       C  0.69592854  0.64474073  0.88887924     0.10470
S2503       S  0.74385697  0.70801534  0.75882222    -0.32890
S2504       S  0.68050545  0.62215463  0.94384229    -0.32890
H2505       H  0.67465773  0.64026706  0.97105051     0.28480
H2506       H  0.77107017  0.71454213  0.77453981     0.28470
H2507       H  0.69435080  0.69401799  0.81464284     0.19060
H2508       H  0.72598663  0.63165803  0.87985046     0.19070
C2509       C  0.86122299  0.78896452  0.97057826    -0.06760
C2510       C  0.86592139  0.79787836  0.91918230    -0.17890
C2511       C  0.86313503  0.78019526  0.87873952     0.10440
C2512       C  0.85472566  0.75217236  0.88962942    -0.06690
C2513       C  0.85021141  0.74329955  0.94144629    -0.17920
C2514       C  0.85375185  0.76140595  0.98184983     0.10470
S2515       S  0.86873228  0.79391802  0.81393587    -0.32890
S2516       S  0.84899228  0.74822531  0.04664651    -0.32890
H2517       H  0.86800151  0.77416469  0.06992666     0.28480
H2518       H  0.88217983  0.82241404  0.82730211     0.28470
H2519       H  0.87083675  0.81871529  0.91035697     0.19060
H2520       H  0.84427611  0.72212717  0.95093800     0.19070
C2521       C  0.94099474  0.66840009  0.62126200    -0.06760
C2522       C  0.96871256  0.69074801  0.63025755    -0.17890
C2523       C  0.99188610  0.68954140  0.61320329     0.10440
C2524       C  0.98704911  0.66609856  0.58412840    -0.06690
C2525       C  0.95928599  0.64312456  0.57789410    -0.17920
C2526       C  0.93630548  0.64366038  0.59791768     0.10470
S2527       S  0.52689008  0.71823466  0.63031763    -0.32890
S2528       S  0.90198046  0.61178509  0.59446147    -0.32890
H2529       H  0.89090781  0.61606711  0.63980693     0.28480
H2530       H  0.54022271  0.70271111  0.62751525     0.28470
H2531       H  0.97227829  0.70903223  0.65134905     0.19060
H2532       H  0.95534429  0.62483231  0.55640082     0.19070
C2533       C  0.95807332  0.80268117  0.49148325    -0.06760
C2534       C  0.96494823  0.80674243  0.54428688    -0.17890
C2535       C  0.94705090  0.78729718  0.58132596     0.10440
C2536       C  0.92111747  0.76336190  0.56565321    -0.06690
C2537       C  0.91462450  0.75927227  0.51256291    -0.17920
C2538       C  0.93257188  0.77855779  0.47566250     0.10470
S2539       S  0.95893737  0.79393702  0.64739451    -0.32890
S2540       S  0.92062485  0.77210856  0.40956193    -0.32890
H2541       H  0.94767109  0.78580083  0.38711917     0.28480
H2542       H  0.94985245  0.76592299  0.65834840     0.28470
H2543       H  0.98429596  0.82552242  0.55681368     0.19060
H2544       H  0.89497591  0.74100812  0.49951271     0.19070
C2545       C  0.96395116  0.80353519  0.90429862    -0.06760
C2546       C  0.94194085  0.77742234  0.92053622    -0.17890
C2547       C  0.92929055  0.75455046  0.88724584     0.10440
C2548       C  0.93915339  0.75752482  0.83579118    -0.06690
C2549       C  0.96140335  0.78388872  0.81969867    -0.17920
C2550       C  0.97420266  0.80675083  0.85355072     0.10470
S2551       S  0.89996282  0.72326755  0.91420186    -0.32890
S2552       S  0.50347399  0.83932661  0.82977819    -0.32890
H2553       H  0.51930704  0.84765244  0.87580702     0.28480
H2554       H  0.88610120  0.71118637  0.86821829     0.28470
H2555       H  0.93464265  0.77484747  0.96002352     0.19060
H2556       H  0.96847128  0.78680096  0.78006217     0.19070
C2557       C  0.92843332  0.64443874  0.98715948    -0.06760
C2558       C  0.89922177  0.62364293  0.98339459    -0.17890
C2559       C  0.87986812  0.62768609  0.95445858     0.10440
C2560       C  0.88939388  0.65334103  0.92881871    -0.06690
C2561       C  0.91828038  0.67440049  0.93485009    -0.17920
C2562       C  0.93769676  0.67038822  0.96286346     0.10470
S2563       S  0.84416364  0.59827595  0.94688585    -0.32890
S2564       S  0.97494867  0.69738356  0.95976686    -0.32890
H2565       H  0.97120784  0.71898055  0.94232563     0.28480
H2566       H  0.83187456  0.61451512  0.94088515     0.28470
H2567       H  0.89155369  0.60359987  0.00161544     0.19060
H2568       H  0.92658703  0.69324417  0.91232043     0.19070
C2569       C  0.81996950  0.75884864  0.62829637    -0.06760
C2570       C  0.80979277  0.77527669  0.64814865    -0.17890
C2571       C  0.81508712  0.79974784  0.62270546     0.10440
C2572       C  0.83146425  0.80832940  0.57704734    -0.06690
C2573       C  0.84097626  0.79160610  0.55692459    -0.17920
C2574       C  0.83526833  0.76708522  0.58138717     0.10470
S2575       S  0.80043139  0.81896644  0.65047530    -0.32890
S2576       S  0.84888912  0.74786140  0.55009812    -0.32890
H2577       H  0.83341102  0.72314645  0.57777670     0.28480
H2578       H  0.81937538  0.84492539  0.62790905     0.28470
H2579       H  0.79845800  0.76952042  0.68435682     0.19060
H2580       H  0.85282454  0.79762935  0.52121657     0.19070
C2581       C  0.78352585  0.67265849  0.50801909    -0.06760
C2582       C  0.77220870  0.68939345  0.51956922    -0.17890
C2583       C  0.74473839  0.68143649  0.50468681     0.10440
C2584       C  0.72977125  0.65962559  0.46850084    -0.06690
C2585       C  0.74311846  0.64576612  0.44954737    -0.17920
C2586       C  0.76977568  0.65197848  0.46930045     0.10470
S2587       S  0.72851062  0.69697888  0.54042463    -0.32890
S2588       S  0.78562249  0.63365059  0.44302753    -0.32890
H2589       H  0.81349255  0.65357776  0.45861927     0.28480
H2590       H  0.70079218  0.67333009  0.53911785     0.28470
H2591       H  0.78234959  0.70538077  0.54917010     0.19060
H2592       H  0.73262972  0.62986253  0.42000053     0.19070
C2593       C  0.84601544  0.52322966  0.83957313    -0.06760
C2594       C  0.83642644  0.52011418  0.78871178    -0.17890
C2595       C  0.84288615  0.54352325  0.75896102     0.10440
C2596       C  0.85854902  0.57066016  0.78114586    -0.06690
C2597       C  0.86999085  0.57380686  0.83073999    -0.17920
C2598       C  0.86394262  0.55041905  0.86005296     0.10470
S2599       S  0.83126988  0.53858648  0.69251521    -0.32890
S2600       S  0.87918501  0.55659126  0.92379204    -0.32890
H2601       H  0.85688887  0.53223854  0.94630185     0.28480
H2602       H  0.81753023  0.50924228  0.69138438     0.28470
H2603       H  0.82406935  0.49929067  0.77231464     0.19060
H2604       H  0.88200178  0.59441106  0.84823736     0.19070
C2605       C  0.74810845  0.56824262  0.85287692    -0.06760
C2606       C  0.73088776  0.54184836  0.82927527    -0.17890
C2607       C  0.70438938  0.52213987  0.84943881     0.10440
C2608       C  0.69474398  0.52899255  0.89383464    -0.06690
C2609       C  0.71214252  0.55453497  0.91872435    -0.17920
C2610       C  0.73884670  0.57386669  0.89992875     0.10470
S2611       S  0.68375298  0.98906432  0.81630122    -0.32890
S2612       S  0.75955534  0.60463150  0.93944407    -0.32890
H2613       H  0.78416541  0.60323946  0.93637485     0.28480
H2614       H  0.65696400  0.98324822  0.83259613     0.28470
H2615       H  0.73749676  0.53677686  0.79378973     0.19060
H2616       H  0.70511505  0.55907536  0.95437765     0.19070
C2617       C  0.68544943  0.52072335  0.57044420    -0.06760
C2618       C  0.71170717  0.53911605  0.54811677    -0.17890
C2619       C  0.73093005  0.56441202  0.57199080     0.10440
C2620       C  0.72417296  0.57184497  0.61953102    -0.06690
C2621       C  0.69792229  0.55342902  0.64221726    -0.17920
C2622       C  0.67850070  0.52793685  0.61824148     0.10470
S2623       S  0.76445670  0.58610055  0.54087258    -0.32890
S2624       S  0.64566162  0.50506580  0.65137903    -0.32890
H2625       H  0.64118319  0.48001174  0.62994943     0.28480
H2626       H  0.76469369  0.61072643  0.55179479     0.28470
H2627       H  0.71696046  0.53411085  0.51104922     0.19060
H2628       H  0.69314869  0.55823572  0.67989282     0.19070
C2629       C  0.83471043  0.58494361  0.54684518    -0.06760
C2630       C  0.82321288  0.55659385  0.55887654    -0.17890
C2631       C  0.82965923  0.53966183  0.52970847     0.10440
C2632       C  0.84762874  0.55100651  0.48660390    -0.06690
C2633       C  0.85769707  0.57855069  0.47227385    -0.17920
C2634       C  0.85149730  0.59563027  0.50133370     0.10470
S2635       S  0.81427725  0.50382503  0.54984962    -0.32890
S2636       S  0.86649042  0.63078771  0.47762380    -0.32890
H2637       H  0.88707193  0.64244632  0.51701489     0.28480
H2638       H  0.83568638  0.49991088  0.53067530     0.28470
H2639       H  0.80975494  0.54762765  0.59225400     0.19060
H2640       H  0.87078570  0.58691657  0.43822141     0.19070
loop_ 
_geom_bond_atom_site_label_1 
_geom_bond_atom_site_label_2 
_geom_bond_distance 
_geom_bond_site_symmetry_2 
_ccdc_geom_bond_type 
O1          Zr37   2.388       .  S
O1           C12   1.280       .  A
O2          Zr36   2.402       .  S
O2           C13   1.284       .  A
O3           Zr9   2.386       .  S
O3           C14   1.282       .  A
O4           Zr9   2.387       .  S
O4           C15   1.282       .  A
O5          Zr39   2.491       .  S
O5           C15   1.301       .  A
O6          Zr38   2.484       .  S
O6           C14   1.300       .  A
O7           Zr9   2.439       .  S
O7           C13   1.293       .  A
O8           Zr9   2.474       .  S
O8           C12   1.299       .  A
Zr9          O10   2.342       .  S
Zr9          O11   2.322       .  S
Zr9          O19   2.319       .  S
Zr9          O17   2.336       .  S
O10         Zr36   2.355       .  S
O10         Zr39   2.334       .  S
O11         Zr37   2.350       .  S
O11         Zr38   2.341       .  S
C12         C649   1.493       .  S
C13         C625   1.483       .  S
C14         C616   1.480       .  S
C15         C640   1.469       .  S
H16          O17   0.965       .  S
O17         Zr36   2.328       .  S
O17         Zr38   2.331       .  S
H18          O19   0.962       .  S
O19         Zr37   2.322       .  S
O19         Zr39   2.340       .  S
O20         Zr36   2.420       .  S
O20          C43   1.291       .  A
O21         Zr37   2.405       .  S
O21          C44   1.286       .  A
O22         Zr38   2.377       .  S
O22          C45   1.281       .  A
O23         Zr39   2.436       .  S
O23          C46   1.293       .  A
O24         Zr39   2.371       .  S
O24          C47   1.283       .  A
O25         Zr38   2.376       .  S
O25          C48   1.282       .  A
O26         Zr40   2.382       .  S
O26          C49   1.281       .  A
O27         Zr40   2.413       .  S
O27          C50   1.286       .  A
O28         Zr38   2.492       .  S
O28          C49   1.300       .  A
O29         Zr39   2.494       .  S
O29          C50   1.301       .  A
O30         Zr36   2.559       .  S
O30          C45   1.315       .  A
O31         Zr37   2.459       .  S
O31          C48   1.296       .  A
O32         Zr37   2.522       .  S
O32          C47   1.306       .  A
O33         Zr36   2.466       .  S
O33          C46   1.298       .  A
O34         Zr40   2.447       .  S
O34          C43   1.293       .  A
O35         Zr40   2.488       .  S
O35          C44   1.301       .  A
Zr36         O42   2.314       .  S
Zr36         O54   2.375       .  S
Zr37         O41   2.325       .  S
Zr37         O52   2.358       .  S
Zr38         O42   2.308       .  S
Zr38         O52   2.359       .  S
Zr39         O41   2.340       .  S
Zr39         O54   2.342       .  S
Zr40         O41   2.316       .  S
Zr40         O42   2.335       .  S
Zr40         O54   2.351       .  S
Zr40         O52   2.335       .  S
C43         C532   1.487       .  S
C44         C556   1.492       .  S
C45         C580   1.505       .  S
C46         C520   1.487       .  S
C47         C601   1.492       .  S
C48         C541   1.447       .  S
C49         C568   1.472       .  S
C50         C589   1.484       .  S
H51          O52   0.966       .  S
H53          O54   0.966       .  S
C55         C448   1.496       .  S
C55          C56   1.416       .  A
C55         C720   1.413       .  A
C56         C508   1.488       .  S
C56        C2037   1.421       .  A
C57         C493   1.491   1_545  S
C57          C58   1.418       .  A
C57        C2036   1.421   1_545  A
C58         C472   1.525       .  S
C58          C59   1.430       .  A
C59         C460   1.473       .  S
C59        C1380   1.432   1_455  A
C60         C484   1.514       .  S
C60         C715   1.413   1_545  A
C60        C1379   1.432       .  A
C61        C1864   1.465   1_455  S
C61          C62   1.398       .  A
C61          C66   1.392       .  A
C62          C63   1.401       .  A
C62          H67   1.084   1_455  S
C63         C457   1.466       .  S
C63          C64   1.399       .  A
C64          C65   1.397       .  A
C64          H68   1.084       .  S
C65         C433   1.451       .  S
C65          C66   1.388       .  A
C66          H69   1.085       .  S
C70         C421   1.491       .  S
C70          C75   1.414       .  A
C70         C731   1.412       .  A
C71          C72   1.410       .  A
C71         C730   1.412       .  A
C71          H76   1.083       .  S
C72         C637   1.476   1_565  S
C72          C73   1.389       .  A
C73          C74   1.391       .  A
C73          H77   1.086   1_565  S
C74         C496   1.472       .  S
C74         C735   1.405       .  A
C75         C734   1.405       .  A
C75          H78   1.084       .  S
C79         C652   1.470       .  S
C79          C80   1.397       .  A
C79          C84   1.387       .  A
C80          C81   1.413       .  A
C80          H85   1.083       .  S
C81         C481   1.516       .  S
C81          C82   1.426   1_545  A
C82          C83   1.421       .  A
C82         H746   1.082       .  S
C83        C1069   1.495       .  S
C83          C84   1.398   1_565  A
C84          H87   1.085       .  S
H86         C742   1.082       .  S
C88         C400   1.489       .  S
C88          C93   1.402       .  A
C88        C1409   1.415   1_455  A
C89          C90   1.408       .  A
C89        C1408   1.415       .  A
C89          H94   1.083       .  S
C90         C553   1.482       .  S
C90          C91   1.393       .  A
C91          C92   1.401       .  A
C91          H95   1.084       .  S
C92         C505   1.483       .  S
C92        C1413   1.405       .  A
C93        C1412   1.405   1_455  A
C93          H96   1.083       .  S
C97         C604   1.497       .  S
C97          C98   1.417       .  A
C97         C102   1.405       .  A
C98          C99   1.421       .  A
C98         H103   1.083       .  S
C99         C469   1.511       .  S
C99         C100   1.410       .  A
C100        C101   1.407       .  A
C100        H104   1.083       .  S
C101        C385   1.494       .  S
C101        C102   1.401       .  A
C102        H105   1.084       .  S
C106        C592   1.484       .  S
C106        C107   1.411       .  A
C106        C111   1.401       .  A
C107        C108   1.411       .  A
C107        H112   1.083       .  S
C108        C445   1.485       .  S
C108        C109   1.398       .  A
C109        C110   1.399       .  A
C109        H113   1.084       .  S
C110        C373   1.485       .  S
C110        C111   1.405       .  A
C111        H114   1.083       .  S
O115       Zr151   2.388       .  S
O115        C126   1.280       .  A
O116       Zr150   2.422       .  S
O116        C127   1.289       .  A
O117       Zr123   2.419       .  S
O117        C128   1.289       .  A
O118       Zr123   2.410       .  S
O118        C129   1.287       .  A
O119       Zr153   2.486       .  S
O119        C129   1.299       .  A
O120       Zr152   2.499       .  S
O120        C128   1.302       .  A
O121       Zr123   2.422       .  S
O121        C127   1.290       .  A
O122       Zr123   2.433       .  S
O122        C126   1.291       .  A
Zr123       O124   2.358       .  S
Zr123       O125   2.351       .  S
Zr123       O133   2.360       .  S
Zr123       O131   2.333       .  S
O124       Zr150   2.346       .  S
O124       Zr153   2.319       .  S
O125       Zr151   2.289       .  S
O125       Zr152   2.360       .  S
C126        C436   1.471       .  S
C127        C325   1.481       .  S
C128        C397   1.480       .  S
C129        C337   1.505       .  S
H130        O131   0.964       .  S
O131       Zr150   2.340       .  S
O131       Zr152   2.336       .  S
H132        O133   0.965       .  S
O133       Zr151   2.359       .  S
O133       Zr153   2.349       .  S
O134       Zr150   2.400       .  S
O134        C157   1.285       .  A
O135       Zr151   2.372       .  S
O135        C158   1.278       .  A
O136       Zr152   2.418       .  S
O136        C159   1.290       .  A
O137       Zr153   2.400       .  S
O137        C160   1.284       .  A
O138       Zr153   2.411       .  S
O138        C161   1.283       .  A
O139       Zr152   2.368       .  S
O139        C162   1.265       .  A
O140       Zr154   2.409       .  S
O140        C163   1.284       .  A
O141       Zr154   2.376       .  S
O141        C164   1.276       .  A
O142       Zr152   2.477       .  S
O142        C163   1.299       .  A
O143       Zr153   2.488       .  S
O143        C164   1.296       .  A
O144       Zr150   2.453       .  S
O144        C159   1.296       .  A
O145       Zr151   2.545       .  S
O145        C162   1.307       .  A
O146       Zr151   2.459       .  S
O146        C161   1.293       .  A
O147       Zr150   2.493       .  S
O147        C160   1.301       .  A
O148       Zr154   2.470       .  S
O148        C157   1.298       .  A
O149       Zr154   2.470       .  S
O149        C158   1.291       .  A
Zr150       O156   2.379       .  S
Zr150       O168   2.370       .  S
Zr151       O155   2.355       .  S
Zr151       O166   2.324       .  S
Zr152       O156   2.356       .  S
Zr152       O166   2.375       .  S
Zr153       O155   2.341       .  S
Zr153       O168   2.345       .  S
Zr154       O155   2.334       .  S
Zr154       O156   2.318       .  S
Zr154       O168   2.342       .  S
Zr154       O166   2.333       .  S
C157        C349   1.475       .  S
C158        C376   1.494       .  S
C159        C361   1.460       .  S
C160        C301   1.485       .  S
C161        C388   1.481       .  S
C162        C424   1.508       .  S
C163        C412   1.485       .  S
C164        C313   1.475       .  S
H165        O166   0.965       .  S
H167        O168   0.965       .  S
C169        C577   1.517   1_554  S
C169        C170   1.417   1_554  A
C169        C174   1.421       .  A
C170        C171   1.411   1_556  A
C170        H175   1.081       .  S
C171        C292   1.493       .  S
C171        C172   1.399       .  A
C172        C173   1.398       .  A
C172       H1496   1.084       .  S
C173       C1660   1.501       .  S
C173        C174   1.415       .  A
C174        H177   1.082       .  S
H176       C1492   1.084   1_455  S
C178        C289   1.497       .  S
C178        C839   1.407   1_545  A
C178       C1503   1.415       .  A
C179        C229   1.463       .  S
C179        C180   1.402       .  A
C179        C838   1.407       .  A
C180        C280   1.487       .  S
C180       C1501   1.403       .  A
C181        C268   1.495       .  S
C181        C182   1.419       .  A
C181       C1500   1.403   1_455  A
C182        C253   1.475       .  S
C182        C843   1.425       .  A
C183        C241   1.488       .  S
C183       C1498   1.415   1_455  A
C183        C842   1.425       .  A
C184        C364   1.480   1_556  S
C184        C185   1.397       .  A
C184        C189   1.406       .  A
C185        C846   1.390       .  A
C185        H190   1.084       .  S
C186        C628   1.459       .  S
C186        C187   1.396       .  A
C186        C845   1.390   1_545  A
C187        C848   1.401       .  A
C187        H191   1.084       .  S
C188        C256   1.483       .  S
C188        C189   1.408       .  A
C188        C847   1.401       .  A
C189        H192   1.082   1_556  S
C193        C328   1.458       .  S
C193        C198   1.402       .  A
C193       C1514   1.384   1_454  A
C194        C195   1.384       .  A
C194       C1513   1.384   1_556  A
C194        H199   1.086       .  S
C195        C565   1.465       .  S
C195        C196   1.401       .  A
C196        C197   1.416       .  A
C196        H200   1.083       .  S
C197        C265   1.493       .  S
C197       C1518   1.411   1_556  A
C198       C1517   1.411   1_454  A
C198        H201   1.083       .  S
C202        C304   1.501       .  S
C202        C203   1.413       .  A
C202        C207   1.410       .  A
C203        C204   1.408       .  A
C203        H208   1.083       .  S
C204        C517   1.496       .  S
C204        C205   1.402       .  A
C205        C206   1.403       .  A
C205        H209   1.084       .  S
C206        C244   1.481       .  S
C206        C207   1.406       .  A
C207        H210   1.083       .  S
C211       C1273   1.475       .  S
C211        C212   1.411       .  A
C211        C216   1.395       .  A
C212        C213   1.410       .  A
C212        H217   1.083       .  S
C213        C352   1.471       .  S
C213        C214   1.396       .  A
C214        C215   1.389       .  A
C214        H218   1.085       .  S
C215        C232   1.462       .  S
C215        C216   1.396       .  A
C216        H879   1.085       .  S
H219        C876   1.085   1_545  S
C220        C529   1.481   1_554  S
C220        C221   1.405       .  A
C220        C225   1.401       .  A
C221        C222   1.403       .  A
C221        H226   1.084       .  S
C222        C316   1.484       .  S
C222        C223   1.412       .  A
C223        C224   1.404       .  A
C223        H227   1.084       .  S
C224        C277   1.483       .  S
C224        C225   1.397       .  A
C225        H228   1.085   1_554  S
C229        C230   1.395       .  A
C229        C234   1.413       .  A
C230        C231   1.395       .  A
C230        H239   1.083   1_556  S
C231        C232   1.414       .  A
C231        S235   1.806   1_556  S
C232        C233   1.396       .  A
C233        C234   1.386       .  A
C233        H900   1.084       .  S
C234        S896   1.805       .  S
S235        H238   1.407       .  S
S236        C894   1.805       .  S
S236        H237   1.400       .  S
H240        C893   1.084       .  S
C241        C242   1.403       .  A
C241        C246   1.415       .  A
C242        C243   1.397       .  A
C242        H251   1.081       .  S
C243        C244   1.410       .  A
C243        S247   1.804       .  S
C244        C245   1.404       .  A
C245        C246   1.405       .  A
C245        H252   1.084   1_556  S
C246        S248   1.806   1_556  S
S247        H250   1.406       .  S
S248        H249   1.402       .  S
C253        C258   1.412       .  A
C253        C914   1.401   1_556  A
C254        C255   1.395       .  A
C254        C913   1.401   1_554  A
C254        H263   1.083       .  S
C255        C916   1.414   1_554  A
C255        S259   1.804       .  S
C256        C257   1.406       .  A
C256        C915   1.414   1_556  A
C257        C258   1.394       .  A
C257        H264   1.084       .  S
C258        S260   1.806       .  S
S259        H262   1.407       .  S
S260        H261   1.397       .  S
C265        C266   1.403       .  A
C265        C270   1.419   1_556  A
C266        C267   1.395       .  A
C266        H275   1.084       .  S
C267       C1588   1.416       .  A
C267        S271   1.801       .  S
C268        C269   1.403   1_556  A
C268       C1587   1.416       .  A
C269       C1590   1.403       .  A
C269        H276   1.082       .  S
C270       C1589   1.403       .  A
C270       S1592   1.803       .  S
S271        H274   1.389       .  S
S272       C1590   1.803       .  S
S272       H1593   1.407   1_455  S
H273       S1592   1.407       .  S
C277        C278   1.401       .  A
C277        C282   1.418   1_554  A
C278        C279   1.402       .  A
C278        H287   1.084       .  S
C279        C280   1.417   1_554  A
C279        S283   1.806       .  S
C280        C281   1.396       .  A
C281        C282   1.394       .  A
C281        H288   1.082       .  S
C282        S284   1.802       .  S
S283        H286   1.403       .  S
S284        H285   1.405       .  S
C289        C294   1.414       .  A
C289       C1610   1.402   1_556  A
C290       C1609   1.402   1_554  A
C290       C1611   1.398       .  A
C290        H299   1.084       .  S
C291        C292   1.416       .  A
C291       C1610   1.398       .  A
C291       S1615   1.805       .  S
C292        C293   1.406   1_554  A
C293        C294   1.410       .  A
C293        H300   1.083       .  S
C294        S296   1.801       .  S
S295       C1611   1.805       .  S
S295        H298   1.407       .  S
S296        H297   1.407       .  S
C301        C302   1.405   1_554  A
C301        C306   1.413       .  A
C302        C303   1.413       .  A
C302        H311   1.084       .  S
C303        C304   1.423       .  A
C303        S307   1.802       .  S
C304        C305   1.402       .  A
C305        C306   1.393   1_556  A
C305        H312   1.083       .  S
C306        S308   1.796       .  S
S307        H310   1.407       .  S
S308        H309   1.403       .  S
C313        C314   1.405       .  A
C313        C318   1.413       .  A
C314        C315   1.389       .  A
C314        H323   1.085       .  S
C315        C316   1.409       .  A
C315        S319   1.805       .  S
C316        C317   1.410       .  A
C317        C318   1.412       .  A
C317        H324   1.083       .  S
C318        S320   1.805       .  S
S319        H322   1.406   1_554  S
S320        H321   1.402       .  S
C325        C326   1.413       .  A
C325        C330   1.420       .  A
C326        C327   1.397       .  A
C326        H335   1.082       .  S
C327        C328   1.401       .  A
C327        S331   1.807       .  S
C328        C329   1.398       .  A
C329        C330   1.395       .  A
C329        H336   1.083   1_554  S
C330        S332   1.811   1_554  S
S331       H1654   1.407       .  S
S332        H333   1.407       .  S
H334       S1651   1.407       .  S
C337        C338   1.414       .  A
C337        C342   1.417       .  A
C338        C339   1.405       .  A
C338        H347   1.084       .  S
C339        C340   1.412       .  A
C339       S1663   1.803   1_455  S
C340       C1493   1.501   1_455  S
C340        C341   1.410       .  A
C341        C342   1.404       .  A
C341        H348   1.084       .  S
C342        S344   1.799       .  S
S343       C1659   1.803       .  S
S343        H346   1.407       .  S
S344        H345   1.408       .  S
C349        C350   1.401       .  A
C349        C354   1.417   1_554  A
C350        C351   1.396       .  A
C350        H359   1.084       .  S
C351        C352   1.412   1_554  A
C351        S355   1.802       .  S
C352        C353   1.402       .  A
C353        C354   1.400       .  A
C353        H360   1.084       .  S
C354        S356   1.803       .  S
S355        H358   1.404   1_554  S
S356        H357   1.405   1_556  S
C361        C362   1.395       .  A
C361        C366   1.408       .  A
C362        C363   1.395       .  A
C362        H371   1.084       .  S
C363        C364   1.421       .  A
C363       S1027   1.806       .  S
C364        C365   1.402       .  A
C365        C366   1.395       .  A
C365        H372   1.084       .  S
C366        S368   1.796       .  S
S367       C1023   1.806   1_545  S
S367        H370   1.407       .  S
S368        H369   1.405       .  S
C373        C374   1.410       .  A
C373        C378   1.408       .  A
C374        C375   1.402       .  A
C374        H383   1.084       .  S
C375        C376   1.414       .  A
C375        S379   1.800       .  S
C376        C377   1.415       .  A
C377        C378   1.394       .  A
C377        H384   1.081       .  S
C378        S380   1.811       .  S
S379        H382   1.408       .  S
S380        H381   1.407       .  S
C385        C386   1.403       .  A
C385        C390   1.420       .  A
C386        C387   1.398       .  A
C386        H395   1.084       .  S
C387        C388   1.419       .  A
C387        S391   1.805       .  S
C388        C389   1.400       .  A
C389        C390   1.401       .  A
C389        H396   1.084       .  S
C390        S392   1.795       .  S
S391        H394   1.407       .  S
S392        H393   1.407       .  S
C397        C398   1.403       .  A
C397        C402   1.417       .  A
C398        C399   1.411       .  A
C398        H407   1.083       .  S
C399        C400   1.418       .  A
C399        S403   1.806       .  S
C400        C401   1.396       .  A
C401        C402   1.395       .  A
C401        H408   1.084       .  S
C402        S404   1.796       .  S
S403        H406   1.407       .  S
S404        H405   1.394       .  S
C409        C743   1.495       .  S
C409        C410   1.406       .  A
C409        C414   1.418       .  A
C410        C411   1.410       .  A
C410        H419   1.084       .  S
C411        C412   1.419       .  A
C411        S415   1.803       .  S
C412        C413   1.402       .  A
C413        C414   1.397       .  A
C413        H420   1.083       .  S
C414        S416   1.806       .  S
S415        H418   1.407       .  S
S416        H417   1.407       .  S
C421        C422   1.391       .  A
C421        C426   1.417       .  A
C422        C423   1.396       .  A
C422        H431   1.083       .  S
C423        C424   1.437       .  A
C423        S427   1.819       .  S
C424        C425   1.409       .  A
C425        C426   1.417       .  A
C425        H432   1.083       .  S
C426        S428   1.801       .  S
S427        H430   1.406       .  S
S428        H429   1.405       .  S
C433        C434   1.395       .  A
C433        C438   1.406       .  A
C434        C435   1.389       .  A
C434        H443   1.085       .  S
C435        C436   1.421       .  A
C435        S439   1.805       .  S
C436        C437   1.407       .  A
C437        C438   1.390       .  A
C437        H444   1.084       .  S
C438        S440   1.805       .  S
S439        H442   1.399       .  S
S440        H441   1.405       .  S
C445        C446   1.400       .  A
C445        C450   1.416       .  A
C446        C447   1.403       .  A
C446        H455   1.084       .  S
C447        C448   1.421       .  A
C447        S451   1.806       .  S
C448        C449   1.402       .  A
C449        C450   1.396       .  A
C449        H456   1.084       .  S
C450        S452   1.805       .  S
S451        H454   1.401       .  S
S452        H453   1.407       .  S
C457        C458   1.397       .  A
C457        C462   1.410       .  A
C458        C459   1.389       .  A
C458        H467   1.085       .  S
C459        C460   1.416       .  A
C459       S1783   1.806       .  S
C460        C461   1.401       .  A
C461        C462   1.398       .  A
C461        H468   1.082       .  S
C462        S464   1.807       .  S
S463       C1779   1.806       .  S
S463        H466   1.401       .  S
S464        H465   1.407   1_455  S
C469        C470   1.404       .  A
C469        C474   1.420       .  A
C470        C471   1.410       .  A
C470        H479   1.084       .  S
C471        C472   1.427       .  A
C471        S475   1.798       .  S
C472        C473   1.408       .  A
C473        C474   1.408       .  A
C473        H480   1.084       .  S
C474        S476   1.804       .  S
S475        H478   1.384       .  S
S476        H477   1.407       .  S
C481        C482   1.412       .  A
C481        C486   1.419       .  A
C482        C483   1.403       .  A
C482        H491   1.083       .  S
C483        C484   1.417       .  A
C483        S487   1.800       .  S
C484        C485   1.410       .  A
C485        C486   1.411       .  A
C485        H492   1.084       .  S
C486        S488   1.801       .  S
S487        H490   1.384       .  S
S488        H489   1.407       .  S
C493        C494   1.406       .  A
C493       C1158   1.417       .  A
C494        C495   1.403       .  A
C494        H503   1.083   1_565  S
C495        C496   1.412       .  A
C495        S499   1.802       .  S
C496       C1157   1.398       .  A
C497        C498   1.391       .  A
C497       C1156   1.398       .  A
C497        H504   1.085       .  S
C498       C1153   1.417       .  A
C498        S500   1.805       .  S
S499        H502   1.403       .  S
S500        H501   1.398       .  S
C505        C506   1.406       .  A
C505       C1830   1.412       .  A
C506        C507   1.390       .  A
C506        H515   1.083       .  S
C507        C508   1.414       .  A
C507        S511   1.801       .  S
C508       C1829   1.406       .  A
C509        C510   1.395       .  A
C509       C1828   1.406       .  A
C509        H516   1.084   1_655  S
C510       C1825   1.412       .  A
C510        S512   1.803       .  S
S511        H514   1.386       .  S
S512        H513   1.407       .  S
C517        C518   1.405       .  A
C517        C522   1.421       .  A
C518        C519   1.401       .  A
C518        H527   1.084       .  S
C519        C520   1.417       .  A
C519        S523   1.805       .  S
C520        C521   1.404       .  A
C521        C522   1.405       .  A
C521        H528   1.084       .  S
C522        S524   1.804       .  S
S523        H526   1.407       .  S
S524        H525   1.407       .  S
C529        C530   1.403       .  A
C529        C534   1.408       .  A
C530        C531   1.395       .  A
C530        H539   1.078       .  S
C531        C532   1.416       .  A
C531        S535   1.812       .  S
C532        C533   1.413       .  A
C533        C534   1.399       .  A
C533        H540   1.083       .  S
C534        S536   1.804   1_556  S
S535        H538   1.407       .  S
S536        H537   1.406       .  S
C541        C542   1.399       .  A
C541        C546   1.407       .  A
C542        C543   1.391       .  A
C542        H551   1.084       .  S
C543        C544   1.413       .  A
C543       S1867   1.805       .  S
C544       C1381   1.465       .  S
C544        C545   1.403       .  A
C545        C546   1.388       .  A
C545        H552   1.084       .  S
C546        S548   1.802       .  S
S547       C1863   1.805   1_455  S
S547        H550   1.407       .  S
S548        H549   1.406       .  S
C553        C554   1.408       .  A
C553        C558   1.408       .  A
C554        C555   1.405       .  A
C554        H563   1.084       .  S
C555        C556   1.414       .  A
C555        S559   1.802       .  S
C556        C557   1.411       .  A
C557        C558   1.400       .  A
C557        H564   1.084       .  S
C558        S560   1.804       .  S
S559        H562   1.407       .  S
S560        H561   1.403       .  S
C565        C566   1.394       .  A
C565        C570   1.410       .  A
C566        C567   1.391       .  A
C566        H575   1.085       .  S
C567        C568   1.422       .  A
C567        S571   1.797       .  S
C568        C569   1.406       .  A
C569        C570   1.400       .  A
C569        H576   1.084       .  S
C570       S1892   1.804       .  S
S571        H574   1.385       .  S
S572       C1890   1.804   1_455  S
S572        H573   1.405       .  S
C577        C578   1.415       .  A
C577        C582   1.416       .  A
C578        C579   1.418       .  A
C578        H587   1.083   1_556  S
C579        C580   1.416       .  A
C579        S583   1.800       .  S
C580        C581   1.411       .  A
C581        C582   1.407       .  A
C581        H588   1.080       .  S
C582        S584   1.809       .  S
S583        H586   1.401       .  S
S584        H585   1.407       .  S
C589        C590   1.405       .  A
C589        C594   1.419       .  A
C590        C591   1.412       .  A
C590        H599   1.084       .  S
C591        C592   1.418       .  A
C591        S595   1.804       .  S
C592        C593   1.395       .  A
C593        C594   1.395       .  A
C593        H600   1.085       .  S
C594        S596   1.800       .  S
S595        H598   1.404       .  S
S596        H597   1.392       .  S
C601        C602   1.406       .  A
C601        C606   1.414       .  A
C602        C603   1.392       .  A
C602        H611   1.085       .  S
C603        C604   1.412       .  A
C603        S607   1.802       .  S
C604        C605   1.411       .  A
C605        C606   1.418       .  A
C605        H612   1.083       .  S
C606        S608   1.798       .  S
S607        H610   1.406       .  S
S608        H609   1.406       .  S
C613        C871   1.475   1_545  S
C613        C614   1.398       .  A
C613        C618   1.415       .  A
C614        C615   1.402       .  A
C614        H623   1.083   1_545  S
C615        C616   1.418       .  A
C615        S619   1.809       .  S
C616        C617   1.402       .  A
C617        C618   1.400       .  A
C617        H624   1.084       .  S
C618        S620   1.804       .  S
S619        H622   1.407       .  S
S620        H621   1.404       .  S
C625        C626   1.411       .  A
C625        C630   1.423       .  A
C626        C627   1.397       .  A
C626        H635   1.083       .  S
C627        C628   1.406       .  A
C627       S1291   1.804   1_545  S
C628        C629   1.394       .  A
C629        C630   1.387       .  A
C629        H636   1.085       .  S
C630        S632   1.805       .  S
S631       C1287   1.804       .  S
S631        H634   1.405       .  S
S632        H633   1.405       .  S
C637        C638   1.395       .  A
C637        C642   1.420       .  A
C638        C639   1.393       .  A
C638        H647   1.084       .  S
C639        C640   1.415       .  A
C639        S643   1.794       .  S
C640        C641   1.399       .  A
C641        C642   1.403       .  A
C641        H648   1.084       .  S
C642        S644   1.804       .  S
S643        H646   1.403       .  S
S644        H645   1.406   1_545  S
C649        C650   1.406       .  A
C649        C654   1.430       .  A
C650        C651   1.399       .  A
C650        H659   1.083       .  S
C651        C652   1.412       .  A
C651        S655   1.805       .  S
C652        C653   1.393       .  A
C653        C654   1.395       .  A
C653        H660   1.084       .  S
C654        S656   1.804       .  S
S655        H658   1.404   1_545  S
S656        H657   1.406       .  S
O661       Zr697   2.388       .  S
O661        C672   1.280       .  A
O662       Zr696   2.402       .  S
O662        C673   1.284       .  A
O663       Zr669   2.386       .  S
O663        C674   1.282       .  A
O664       Zr669   2.387       .  S
O664        C675   1.282       .  A
O665       Zr699   2.491       .  S
O665        C675   1.301       .  A
O666       Zr698   2.484       .  S
O666        C674   1.300       .  A
O667       Zr669   2.439       .  S
O667        C673   1.293       .  A
O668       Zr669   2.474       .  S
O668        C672   1.299       .  A
Zr669       O670   2.342       .  S
Zr669       O671   2.322       .  S
Zr669       O679   2.319       .  S
Zr669       O677   2.336       .  S
O670       Zr696   2.355       .  S
O670       Zr699   2.334       .  S
O671       Zr697   2.350       .  S
O671       Zr698   2.341       .  S
C672       C1309   1.493       .  S
C673       C1285   1.483       .  S
C674       C1276   1.480       .  S
C675       C1300   1.469       .  S
H676        O677   0.965       .  S
O677       Zr696   2.328       .  S
O677       Zr698   2.331       .  S
H678        O679   0.962       .  S
O679       Zr697   2.322       .  S
O679       Zr699   2.340       .  S
O680       Zr696   2.420       .  S
O680        C703   1.291       .  A
O681       Zr697   2.405       .  S
O681        C704   1.286       .  A
O682       Zr698   2.377       .  S
O682        C705   1.281       .  A
O683       Zr699   2.436       .  S
O683        C706   1.293       .  A
O684       Zr699   2.371       .  S
O684        C707   1.283       .  A
O685       Zr698   2.376       .  S
O685        C708   1.282       .  A
O686       Zr700   2.382       .  S
O686        C709   1.281       .  A
O687       Zr700   2.413       .  S
O687        C710   1.286       .  A
O688       Zr698   2.492       .  S
O688        C709   1.300       .  A
O689       Zr699   2.494       .  S
O689        C710   1.301       .  A
O690       Zr696   2.559       .  S
O690        C705   1.315       .  A
O691       Zr697   2.459       .  S
O691        C708   1.296       .  A
O692       Zr697   2.522       .  S
O692        C707   1.306       .  A
O693       Zr696   2.466       .  S
O693        C706   1.298       .  A
O694       Zr700   2.447       .  S
O694        C703   1.293       .  A
O695       Zr700   2.488       .  S
O695        C704   1.301       .  A
Zr696       O702   2.314       .  S
Zr696       O714   2.375       .  S
Zr697       O701   2.325       .  S
Zr697       O712   2.358       .  S
Zr698       O702   2.308       .  S
Zr698       O712   2.359       .  S
Zr699       O701   2.340       .  S
Zr699       O714   2.342       .  S
Zr700       O701   2.316       .  S
Zr700       O702   2.335       .  S
Zr700       O714   2.351       .  S
Zr700       O712   2.335       .  S
C703       C1192   1.487       .  S
C704       C1216   1.492       .  S
C705       C1240   1.505       .  S
C706       C1180   1.487       .  S
C707       C1261   1.492       .  S
C708       C1201   1.447       .  S
C709       C1228   1.472       .  S
C710       C1249   1.484       .  S
H711        O712   0.966       .  S
H713        O714   0.966       .  S
C715       C1108   1.496       .  S
C715        C716   1.416       .  A
C716       C1168   1.488       .  S
C716       C1377   1.421   1_565  A
C717       C1153   1.491       .  S
C717       C1376   1.421       .  A
C717        C718   1.418       .  A
C718       C1132   1.525       .  S
C718        C719   1.430       .  A
C719       C1120   1.473       .  S
C719       C2040   1.432   1_455  A
C720       C1144   1.514       .  S
C720       C2039   1.432       .  A
C721       C2524   1.465   1_455  S
C721        C722   1.398       .  A
C721        C726   1.392       .  A
C722        C723   1.401       .  A
C722        H727   1.084   1_455  S
C723       C1117   1.466       .  S
C723        C724   1.399       .  A
C724        C725   1.397       .  A
C724        H728   1.084       .  S
C725       C1093   1.451       .  S
C725        C726   1.388       .  A
C726        H729   1.085       .  S
C730       C1081   1.491       .  S
C730        C735   1.414       .  A
C731        C732   1.410       .  A
C731        H736   1.083       .  S
C732       C1297   1.476       .  S
C732        C733   1.389       .  A
C733        C734   1.391       .  A
C733        H737   1.086       .  S
C734       C1156   1.472       .  S
C735        H738   1.084       .  S
C739       C1312   1.470       .  S
C739        C740   1.397       .  A
C739        C744   1.387       .  A
C740        C741   1.413       .  A
C740        H745   1.083       .  S
C741       C1141   1.516       .  S
C741        C742   1.426       .  A
C742        C743   1.421       .  A
C743        C744   1.398       .  A
C744        H747   1.085       .  S
C748       C1060   1.489       .  S
C748       C2069   1.415   1_455  A
C748        C753   1.402       .  A
C749       C2068   1.415       .  A
C749        C750   1.408       .  A
C749        H754   1.083       .  S
C750       C1213   1.482       .  S
C750        C751   1.393       .  A
C751        C752   1.401       .  A
C751        H755   1.084       .  S
C752       C1165   1.483       .  S
C752       C2073   1.405       .  A
C753       C2072   1.405   1_455  A
C753        H756   1.083       .  S
C757       C1264   1.497       .  S
C757        C758   1.417       .  A
C757        C762   1.405       .  A
C758        C759   1.421       .  A
C758        H763   1.083       .  S
C759       C1129   1.511       .  S
C759        C760   1.410       .  A
C760        C761   1.407       .  A
C760        H764   1.083       .  S
C761       C1045   1.494       .  S
C761        C762   1.401       .  A
C762        H765   1.084       .  S
C766       C1252   1.484       .  S
C766        C767   1.411       .  A
C766        C771   1.401       .  A
C767        C768   1.411       .  A
C767        H772   1.083       .  S
C768       C1105   1.485       .  S
C768        C769   1.398       .  A
C769        C770   1.399       .  A
C769        H773   1.084       .  S
C770       C1033   1.485       .  S
C770        C771   1.405       .  A
C771        H774   1.083       .  S
O775       Zr811   2.388       .  S
O775        C786   1.280       .  A
O776       Zr810   2.422       .  S
O776        C787   1.289       .  A
O777       Zr783   2.419       .  S
O777        C788   1.289       .  A
O778       Zr783   2.410       .  S
O778        C789   1.287       .  A
O779       Zr813   2.486       .  S
O779        C789   1.299       .  A
O780       Zr812   2.499       .  S
O780        C788   1.302       .  A
O781       Zr783   2.422       .  S
O781        C787   1.290       .  A
O782       Zr783   2.433       .  S
O782        C786   1.291       .  A
Zr783       O784   2.358       .  S
Zr783       O785   2.351       .  S
Zr783       O793   2.360       .  S
Zr783       O791   2.333       .  S
O784       Zr810   2.346       .  S
O784       Zr813   2.319       .  S
O785       Zr811   2.289       .  S
O785       Zr812   2.360       .  S
C786       C1096   1.471       .  S
C787        C985   1.481       .  S
C788       C1057   1.480       .  S
C789        C997   1.505       .  S
H790        O791   0.964       .  S
O791       Zr810   2.340       .  S
O791       Zr812   2.336       .  S
H792        O793   0.965       .  S
O793       Zr811   2.359       .  S
O793       Zr813   2.349       .  S
O794       Zr810   2.400       .  S
O794        C817   1.285       .  A
O795       Zr811   2.372       .  S
O795        C818   1.278       .  A
O796       Zr812   2.418       .  S
O796        C819   1.290       .  A
O797       Zr813   2.400       .  S
O797        C820   1.284       .  A
O798       Zr813   2.411       .  S
O798        C821   1.283       .  A
O799       Zr812   2.368       .  S
O799        C822   1.265       .  A
O800       Zr814   2.409       .  S
O800        C823   1.284       .  A
O801       Zr814   2.376       .  S
O801        C824   1.276       .  A
O802       Zr812   2.477       .  S
O802        C823   1.299       .  A
O803       Zr813   2.488       .  S
O803        C824   1.296       .  A
O804       Zr810   2.453       .  S
O804        C819   1.296       .  A
O805       Zr811   2.545       .  S
O805        C822   1.307       .  A
O806       Zr811   2.459       .  S
O806        C821   1.293       .  A
O807       Zr810   2.493       .  S
O807        C820   1.301       .  A
O808       Zr814   2.470       .  S
O808        C817   1.298       .  A
O809       Zr814   2.470       .  S
O809        C818   1.291       .  A
Zr810       O816   2.379       .  S
Zr810       O828   2.370       .  S
Zr811       O815   2.355       .  S
Zr811       O826   2.324       .  S
Zr812       O816   2.356       .  S
Zr812       O826   2.375       .  S
Zr813       O815   2.341       .  S
Zr813       O828   2.345       .  S
Zr814       O815   2.334       .  S
Zr814       O816   2.318       .  S
Zr814       O828   2.342       .  S
Zr814       O826   2.333       .  S
C817       C1009   1.475       .  S
C818       C1036   1.494       .  S
C819       C1021   1.460       .  S
C820        C961   1.485       .  S
C821       C1048   1.481       .  S
C822       C1084   1.508       .  S
C823       C1072   1.485       .  S
C824        C973   1.475       .  S
H825        O826   0.965       .  S
H827        O828   0.965       .  S
C829       C1237   1.517   1_554  S
C829        C830   1.417   1_554  A
C829        C834   1.421       .  A
C830        C831   1.411   1_556  A
C830        H835   1.081       .  S
C831        C952   1.493       .  S
C831        C832   1.399       .  A
C832        C833   1.398       .  A
C832       H2156   1.084       .  S
C833       C2320   1.501       .  S
C833        C834   1.415       .  A
C834        H837   1.082       .  S
H836       C2152   1.084   1_455  S
C838        C949   1.497       .  S
C838       C2163   1.415       .  A
C839        C889   1.463       .  S
C839        C840   1.402       .  A
C840        C940   1.487       .  S
C840       C2161   1.403       .  A
C841        C928   1.495       .  S
C841       C2160   1.403   1_455  A
C841        C842   1.419   1_565  A
C842        C913   1.475       .  S
C843        C901   1.488       .  S
C843       C2158   1.415   1_455  A
C844       C1024   1.480   1_556  S
C844        C845   1.397       .  A
C844        C849   1.406       .  A
C845        H850   1.084       .  S
C846       C1288   1.459       .  S
C846        C847   1.396       .  A
C847        H851   1.084       .  S
C848        C916   1.483       .  S
C848        C849   1.408   1_545  A
C849        H852   1.082   1_556  S
C853        C988   1.458       .  S
C853       C2174   1.384   1_454  A
C853        C858   1.402       .  A
C854       C2173   1.384   1_556  A
C854        C855   1.384       .  A
C854        H859   1.086       .  S
C855       C1225   1.465       .  S
C855        C856   1.401       .  A
C856        C857   1.416       .  A
C856        H860   1.083       .  S
C857        C925   1.493       .  S
C857       C2178   1.411   1_556  A
C858       C2177   1.411   1_454  A
C858        H861   1.083       .  S
C862        C964   1.501       .  S
C862        C863   1.413       .  A
C862        C867   1.410       .  A
C863        C864   1.408       .  A
C863        H868   1.083       .  S
C864       C1177   1.496       .  S
C864        C865   1.402       .  A
C865        C866   1.403       .  A
C865        H869   1.084       .  S
C866        C904   1.481       .  S
C866        C867   1.406       .  A
C867        H870   1.083       .  S
C871        C872   1.411       .  A
C871        C876   1.395       .  A
C872        C873   1.410       .  A
C872        H877   1.083       .  S
C873       C1012   1.471       .  S
C873        C874   1.396       .  A
C874        C875   1.389       .  A
C874        H878   1.085       .  S
C875        C892   1.462       .  S
C875        C876   1.396       .  A
C880       C1189   1.481   1_554  S
C880        C881   1.405       .  A
C880        C885   1.401       .  A
C881        C882   1.403       .  A
C881        H886   1.084       .  S
C882        C976   1.484       .  S
C882        C883   1.412       .  A
C883        C884   1.404       .  A
C883        H887   1.084       .  S
C884        C937   1.483       .  S
C884        C885   1.397       .  A
C885        H888   1.085   1_554  S
C889        C890   1.395       .  A
C889        C894   1.413       .  A
C890        C891   1.395       .  A
C890        H899   1.083   1_556  S
C891        C892   1.414       .  A
C891        S895   1.806   1_556  S
C892        C893   1.396       .  A
C893        C894   1.386       .  A
S895        H898   1.407       .  S
S896        H897   1.400       .  S
C901        C902   1.403       .  A
C901        C906   1.415       .  A
C902        C903   1.397       .  A
C902        H911   1.081       .  S
C903        C904   1.410       .  A
C903        S907   1.804       .  S
C904        C905   1.404       .  A
C905        C906   1.405       .  A
C905        H912   1.084   1_556  S
C906        S908   1.806   1_556  S
S907        H910   1.406       .  S
S908        H909   1.402       .  S
C913        C918   1.412       .  A
C914        C915   1.395       .  A
C914        H923   1.083       .  S
C915        S919   1.804       .  S
C916        C917   1.406       .  A
C917        C918   1.394       .  A
C917        H924   1.084       .  S
C918        S920   1.806       .  S
S919        H922   1.407       .  S
S920        H921   1.397       .  S
C925        C926   1.403       .  A
C925        C930   1.419   1_556  A
C926        C927   1.395       .  A
C926        H935   1.084       .  S
C927       C2248   1.416       .  A
C927        S931   1.801       .  S
C928       C2247   1.416       .  A
C928        C929   1.403   1_556  A
C929       C2250   1.403       .  A
C929        H936   1.082       .  S
C930       C2249   1.403       .  A
C930       S2252   1.803       .  S
S931        H934   1.389       .  S
S932       C2250   1.803       .  S
S932       H2253   1.407   1_455  S
H933       S2252   1.407       .  S
C937        C938   1.401       .  A
C937        C942   1.418   1_554  A
C938        C939   1.402       .  A
C938        H947   1.084       .  S
C939        C940   1.417   1_554  A
C939        S943   1.806       .  S
C940        C941   1.396       .  A
C941        C942   1.394       .  A
C941        H948   1.082       .  S
C942        S944   1.802       .  S
S943        H946   1.403       .  S
S944        H945   1.405       .  S
C949       C2270   1.402   1_556  A
C949        C954   1.414       .  A
C950       C2269   1.402   1_554  A
C950       C2271   1.398       .  A
C950        H959   1.084       .  S
C951       C2270   1.398       .  A
C951        C952   1.416       .  A
C951       S2275   1.805       .  S
C952        C953   1.406   1_554  A
C953        C954   1.410       .  A
C953        H960   1.083       .  S
C954        S956   1.801       .  S
S955       C2271   1.805       .  S
S955        H958   1.407       .  S
S956        H957   1.407       .  S
C961        C962   1.405   1_554  A
C961        C966   1.413       .  A
C962        C963   1.413       .  A
C962        H971   1.084       .  S
C963        C964   1.423       .  A
C963        S967   1.802       .  S
C964        C965   1.402       .  A
C965        C966   1.393   1_556  A
C965        H972   1.083       .  S
C966        S968   1.796       .  S
S967        H970   1.407       .  S
S968        H969   1.403       .  S
C973        C974   1.405       .  A
C973        C978   1.413       .  A
C974        C975   1.389       .  A
C974        H983   1.085       .  S
C975        C976   1.409       .  A
C975        S979   1.805       .  S
C976        C977   1.410       .  A
C977        C978   1.412       .  A
C977        H984   1.083       .  S
C978        S980   1.805       .  S
S979        H982   1.406   1_554  S
S980        H981   1.402       .  S
C985        C986   1.413       .  A
C985        C990   1.420       .  A
C986        C987   1.397       .  A
C986        H995   1.082       .  S
C987        C988   1.401       .  A
C987        S991   1.807       .  S
C988        C989   1.398       .  A
C989        C990   1.395       .  A
C989        H996   1.083   1_554  S
C990        S992   1.811   1_554  S
S991       H2314   1.407       .  S
S992        H993   1.407       .  S
H994       S2311   1.407       .  S
C997        C998   1.414       .  A
C997       C1002   1.417       .  A
C998        C999   1.405       .  A
C998       H1007   1.084       .  S
C999       C1000   1.412       .  A
C999       S2323   1.803   1_455  S
C1000      C2153   1.501   1_455  S
C1000      C1001   1.410       .  A
C1001      C1002   1.404       .  A
C1001      H1008   1.084       .  S
C1002      S1004   1.799       .  S
S1003      C2319   1.803       .  S
S1003      H1006   1.407       .  S
S1004      H1005   1.408       .  S
C1009      C1010   1.401       .  A
C1009      C1014   1.417   1_554  A
C1010      C1011   1.396       .  A
C1010      H1019   1.084       .  S
C1011      C1012   1.412   1_554  A
C1011      S1015   1.802       .  S
C1012      C1013   1.402       .  A
C1013      C1014   1.400       .  A
C1013      H1020   1.084       .  S
C1014      S1016   1.803       .  S
S1015      H1018   1.404   1_554  S
S1016      H1017   1.405   1_556  S
C1021      C1022   1.395       .  A
C1021      C1026   1.408       .  A
C1022      C1023   1.395       .  A
C1022      H1031   1.084       .  S
C1023      C1024   1.421       .  A
C1024      C1025   1.402       .  A
C1025      C1026   1.395       .  A
C1025      H1032   1.084       .  S
C1026      S1028   1.796       .  S
S1027      H1030   1.407       .  S
S1028      H1029   1.405       .  S
C1033      C1034   1.410       .  A
C1033      C1038   1.408       .  A
C1034      C1035   1.402       .  A
C1034      H1043   1.084       .  S
C1035      C1036   1.414       .  A
C1035      S1039   1.800       .  S
C1036      C1037   1.415       .  A
C1037      C1038   1.394       .  A
C1037      H1044   1.081       .  S
C1038      S1040   1.811       .  S
S1039      H1042   1.408       .  S
S1040      H1041   1.407       .  S
C1045      C1046   1.403       .  A
C1045      C1050   1.420       .  A
C1046      C1047   1.398       .  A
C1046      H1055   1.084       .  S
C1047      C1048   1.419       .  A
C1047      S1051   1.805       .  S
C1048      C1049   1.400       .  A
C1049      C1050   1.401       .  A
C1049      H1056   1.084       .  S
C1050      S1052   1.795       .  S
S1051      H1054   1.407       .  S
S1052      H1053   1.407       .  S
C1057      C1058   1.403       .  A
C1057      C1062   1.417       .  A
C1058      C1059   1.411       .  A
C1058      H1067   1.083       .  S
C1059      C1060   1.418       .  A
C1059      S1063   1.806       .  S
C1060      C1061   1.396       .  A
C1061      C1062   1.395       .  A
C1061      H1068   1.084       .  S
C1062      S1064   1.796       .  S
S1063      H1066   1.407       .  S
S1064      H1065   1.394       .  S
C1069      C1070   1.406       .  A
C1069      C1074   1.418       .  A
C1070      C1071   1.410       .  A
C1070      H1079   1.084       .  S
C1071      C1072   1.419       .  A
C1071      S1075   1.803       .  S
C1072      C1073   1.402       .  A
C1073      C1074   1.397       .  A
C1073      H1080   1.083       .  S
C1074      S1076   1.806       .  S
S1075      H1078   1.407       .  S
S1076      H1077   1.407       .  S
C1081      C1082   1.391       .  A
C1081      C1086   1.417       .  A
C1082      C1083   1.396       .  A
C1082      H1091   1.083       .  S
C1083      C1084   1.437       .  A
C1083      S1087   1.819       .  S
C1084      C1085   1.409       .  A
C1085      C1086   1.417       .  A
C1085      H1092   1.083       .  S
C1086      S1088   1.801       .  S
S1087      H1090   1.406       .  S
S1088      H1089   1.405       .  S
C1093      C1094   1.395       .  A
C1093      C1098   1.406       .  A
C1094      C1095   1.389       .  A
C1094      H1103   1.085       .  S
C1095      C1096   1.421       .  A
C1095      S1099   1.805       .  S
C1096      C1097   1.407       .  A
C1097      C1098   1.390       .  A
C1097      H1104   1.084       .  S
C1098      S1100   1.805       .  S
S1099      H1102   1.399       .  S
S1100      H1101   1.405       .  S
C1105      C1106   1.400       .  A
C1105      C1110   1.416       .  A
C1106      C1107   1.403       .  A
C1106      H1115   1.084       .  S
C1107      C1108   1.421       .  A
C1107      S1111   1.806       .  S
C1108      C1109   1.402       .  A
C1109      C1110   1.396       .  A
C1109      H1116   1.084       .  S
C1110      S1112   1.805       .  S
S1111      H1114   1.401       .  S
S1112      H1113   1.407       .  S
C1117      C1118   1.397       .  A
C1117      C1122   1.410       .  A
C1118      C1119   1.389       .  A
C1118      H1127   1.085       .  S
C1119      C1120   1.416       .  A
C1119      S2443   1.806       .  S
C1120      C1121   1.401       .  A
C1121      C1122   1.398       .  A
C1121      H1128   1.082       .  S
C1122      S1124   1.807       .  S
S1123      C2439   1.806       .  S
S1123      H1126   1.401       .  S
S1124      H1125   1.407   1_455  S
C1129      C1130   1.404       .  A
C1129      C1134   1.420       .  A
C1130      C1131   1.410       .  A
C1130      H1139   1.084       .  S
C1131      C1132   1.427       .  A
C1131      S1135   1.798       .  S
C1132      C1133   1.408       .  A
C1133      C1134   1.408       .  A
C1133      H1140   1.084       .  S
C1134      S1136   1.804       .  S
S1135      H1138   1.384       .  S
S1136      H1137   1.407       .  S
C1141      C1142   1.412       .  A
C1141      C1146   1.419       .  A
C1142      C1143   1.403       .  A
C1142      H1151   1.083       .  S
C1143      C1144   1.417       .  A
C1143      S1147   1.800       .  S
C1144      C1145   1.410       .  A
C1145      C1146   1.411       .  A
C1145      H1152   1.084       .  S
C1146      S1148   1.801       .  S
S1147      H1150   1.384       .  S
S1148      H1149   1.407       .  S
C1153      C1154   1.406       .  A
C1154      C1155   1.403       .  A
C1154      H1163   1.083       .  S
C1155      C1156   1.412       .  A
C1155      S1159   1.802       .  S
C1157      C1158   1.391       .  A
C1157      H1164   1.085       .  S
C1158      S1160   1.805       .  S
S1159      H1162   1.403       .  S
S1160      H1161   1.398       .  S
C1165      C1166   1.406       .  A
C1165      C2490   1.412       .  A
C1166      C1167   1.390       .  A
C1166      H1175   1.083       .  S
C1167      C1168   1.414       .  A
C1167      S1171   1.801       .  S
C1168      C2489   1.406       .  A
C1169      C2488   1.406       .  A
C1169      C1170   1.395       .  A
C1169      H1176   1.084   1_655  S
C1170      C2485   1.412       .  A
C1170      S1172   1.803       .  S
S1171      H1174   1.386       .  S
S1172      H1173   1.407       .  S
C1177      C1178   1.405       .  A
C1177      C1182   1.421       .  A
C1178      C1179   1.401       .  A
C1178      H1187   1.084       .  S
C1179      C1180   1.417       .  A
C1179      S1183   1.805       .  S
C1180      C1181   1.404       .  A
C1181      C1182   1.405       .  A
C1181      H1188   1.084       .  S
C1182      S1184   1.804       .  S
S1183      H1186   1.407       .  S
S1184      H1185   1.407       .  S
C1189      C1190   1.403       .  A
C1189      C1194   1.408       .  A
C1190      C1191   1.395       .  A
C1190      H1199   1.078       .  S
C1191      C1192   1.416       .  A
C1191      S1195   1.812       .  S
C1192      C1193   1.413       .  A
C1193      C1194   1.399       .  A
C1193      H1200   1.083       .  S
C1194      S1196   1.804   1_556  S
S1195      H1198   1.407       .  S
S1196      H1197   1.406       .  S
C1201      C1202   1.399       .  A
C1201      C1206   1.407       .  A
C1202      C1203   1.391       .  A
C1202      H1211   1.084       .  S
C1203      C1204   1.413       .  A
C1203      S2527   1.805       .  S
C1204      C2041   1.465       .  S
C1204      C1205   1.403       .  A
C1205      C1206   1.388       .  A
C1205      H1212   1.084       .  S
C1206      S1208   1.802       .  S
S1207      C2523   1.805   1_455  S
S1207      H1210   1.407       .  S
S1208      H1209   1.406       .  S
C1213      C1214   1.408       .  A
C1213      C1218   1.408       .  A
C1214      C1215   1.405       .  A
C1214      H1223   1.084       .  S
C1215      C1216   1.414       .  A
C1215      S1219   1.802       .  S
C1216      C1217   1.411       .  A
C1217      C1218   1.400       .  A
C1217      H1224   1.084       .  S
C1218      S1220   1.804       .  S
S1219      H1222   1.407       .  S
S1220      H1221   1.403       .  S
C1225      C1226   1.394       .  A
C1225      C1230   1.410       .  A
C1226      C1227   1.391       .  A
C1226      H1235   1.085       .  S
C1227      C1228   1.422       .  A
C1227      S1231   1.797       .  S
C1228      C1229   1.406       .  A
C1229      C1230   1.400       .  A
C1229      H1236   1.084       .  S
C1230      S2552   1.804       .  S
S1231      H1234   1.385       .  S
S1232      C2550   1.804   1_455  S
S1232      H1233   1.405       .  S
C1237      C1238   1.415       .  A
C1237      C1242   1.416       .  A
C1238      C1239   1.418       .  A
C1238      H1247   1.083   1_556  S
C1239      C1240   1.416       .  A
C1239      S1243   1.800       .  S
C1240      C1241   1.411       .  A
C1241      C1242   1.407       .  A
C1241      H1248   1.080       .  S
C1242      S1244   1.809       .  S
S1243      H1246   1.401       .  S
S1244      H1245   1.407       .  S
C1249      C1250   1.405       .  A
C1249      C1254   1.419       .  A
C1250      C1251   1.412       .  A
C1250      H1259   1.084       .  S
C1251      C1252   1.418       .  A
C1251      S1255   1.804       .  S
C1252      C1253   1.395       .  A
C1253      C1254   1.395       .  A
C1253      H1260   1.085       .  S
C1254      S1256   1.800       .  S
S1255      H1258   1.404       .  S
S1256      H1257   1.392       .  S
C1261      C1262   1.406       .  A
C1261      C1266   1.414       .  A
C1262      C1263   1.392       .  A
C1262      H1271   1.085       .  S
C1263      C1264   1.412       .  A
C1263      S1267   1.802       .  S
C1264      C1265   1.411       .  A
C1265      C1266   1.418       .  A
C1265      H1272   1.083       .  S
C1266      S1268   1.798       .  S
S1267      H1270   1.406       .  S
S1268      H1269   1.406       .  S
C1273      C1274   1.398       .  A
C1273      C1278   1.415       .  A
C1274      C1275   1.402       .  A
C1274      H1283   1.083       .  S
C1275      C1276   1.418       .  A
C1275      S1279   1.809       .  S
C1276      C1277   1.402       .  A
C1277      C1278   1.400       .  A
C1277      H1284   1.084       .  S
C1278      S1280   1.804       .  S
S1279      H1282   1.407       .  S
S1280      H1281   1.404       .  S
C1285      C1286   1.411       .  A
C1285      C1290   1.423       .  A
C1286      C1287   1.397       .  A
C1286      H1295   1.083       .  S
C1287      C1288   1.406       .  A
C1288      C1289   1.394       .  A
C1289      C1290   1.387       .  A
C1289      H1296   1.085       .  S
C1290      S1292   1.805       .  S
S1291      H1294   1.405       .  S
S1292      H1293   1.405       .  S
C1297      C1298   1.395       .  A
C1297      C1302   1.420       .  A
C1298      C1299   1.393       .  A
C1298      H1307   1.084       .  S
C1299      C1300   1.415       .  A
C1299      S1303   1.794       .  S
C1300      C1301   1.399       .  A
C1301      C1302   1.403       .  A
C1301      H1308   1.084       .  S
C1302      S1304   1.804       .  S
S1303      H1306   1.403       .  S
S1304      H1305   1.406       .  S
C1309      C1310   1.406       .  A
C1309      C1314   1.430       .  A
C1310      C1311   1.399       .  A
C1310      H1319   1.083       .  S
C1311      C1312   1.412       .  A
C1311      S1315   1.805       .  S
C1312      C1313   1.393       .  A
C1313      C1314   1.395       .  A
C1313      H1320   1.084       .  S
C1314      S1316   1.804       .  S
S1315      H1318   1.404       .  S
S1316      H1317   1.406       .  S
O1321     Zr1357   2.388       .  S
O1321      C1332   1.280       .  A
O1322     Zr1356   2.402       .  S
O1322      C1333   1.284       .  A
O1323     Zr1329   2.386       .  S
O1323      C1334   1.282       .  A
O1324     Zr1329   2.387       .  S
O1324      C1335   1.282       .  A
O1325     Zr1359   2.491       .  S
O1325      C1335   1.301       .  A
O1326     Zr1358   2.484       .  S
O1326      C1334   1.300       .  A
O1327     Zr1329   2.439       .  S
O1327      C1333   1.293       .  A
O1328     Zr1329   2.474       .  S
O1328      C1332   1.299       .  A
Zr1329     O1330   2.342       .  S
Zr1329     O1331   2.322       .  S
Zr1329     O1339   2.319       .  S
Zr1329     O1337   2.336       .  S
O1330     Zr1356   2.355       .  S
O1330     Zr1359   2.334       .  S
O1331     Zr1357   2.350       .  S
O1331     Zr1358   2.341       .  S
C1332      C1969   1.493       .  S
C1333      C1945   1.483       .  S
C1334      C1936   1.480       .  S
C1335      C1960   1.469       .  S
H1336      O1337   0.965       .  S
O1337     Zr1356   2.328       .  S
O1337     Zr1358   2.331       .  S
H1338      O1339   0.962       .  S
O1339     Zr1357   2.322       .  S
O1339     Zr1359   2.340       .  S
O1340     Zr1356   2.420       .  S
O1340      C1363   1.291       .  A
O1341     Zr1357   2.405       .  S
O1341      C1364   1.286       .  A
O1342     Zr1358   2.377       .  S
O1342      C1365   1.281       .  A
O1343     Zr1359   2.436       .  S
O1343      C1366   1.293       .  A
O1344     Zr1359   2.371       .  S
O1344      C1367   1.283       .  A
O1345     Zr1358   2.376       .  S
O1345      C1368   1.282       .  A
O1346     Zr1360   2.382       .  S
O1346      C1369   1.281       .  A
O1347     Zr1360   2.413       .  S
O1347      C1370   1.286       .  A
O1348     Zr1358   2.492       .  S
O1348      C1369   1.300       .  A
O1349     Zr1359   2.494       .  S
O1349      C1370   1.301       .  A
O1350     Zr1356   2.559       .  S
O1350      C1365   1.315       .  A
O1351     Zr1357   2.459       .  S
O1351      C1368   1.296       .  A
O1352     Zr1357   2.522       .  S
O1352      C1367   1.306       .  A
O1353     Zr1356   2.466       .  S
O1353      C1366   1.298       .  A
O1354     Zr1360   2.447       .  S
O1354      C1363   1.293       .  A
O1355     Zr1360   2.488       .  S
O1355      C1364   1.301       .  A
Zr1356     O1362   2.314       .  S
Zr1356     O1374   2.375       .  S
Zr1357     O1361   2.325       .  S
Zr1357     O1372   2.358       .  S
Zr1358     O1362   2.308       .  S
Zr1358     O1372   2.359       .  S
Zr1359     O1361   2.340       .  S
Zr1359     O1374   2.342       .  S
Zr1360     O1361   2.316       .  S
Zr1360     O1362   2.335       .  S
Zr1360     O1374   2.351       .  S
Zr1360     O1372   2.335       .  S
C1363      C1852   1.487       .  S
C1364      C1876   1.492       .  S
C1365      C1900   1.505       .  S
C1366      C1840   1.487       .  S
C1367      C1921   1.492       .  S
C1368      C1861   1.447       .  S
C1369      C1888   1.472       .  S
C1370      C1909   1.484       .  S
H1371      O1372   0.966       .  S
H1373      O1374   0.966       .  S
C1375      C1768   1.496       .  S
C1375      C1376   1.416   1_655  A
C1375      C2040   1.413       .  A
C1376      C1828   1.488   1_455  S
C1377      C1813   1.491   1_545  S
C1377      C1378   1.418       .  A
C1378      C1792   1.525       .  S
C1378      C1379   1.430       .  A
C1379      C1780   1.473       .  S
C1380      C1804   1.514       .  S
C1380      C2035   1.413   1_545  A
C1381      C1382   1.398       .  A
C1381      C1386   1.392       .  A
C1382      C1383   1.401       .  A
C1382      H1387   1.084       .  S
C1383      C1777   1.466       .  S
C1383      C1384   1.399       .  A
C1384      C1385   1.397       .  A
C1384      H1388   1.084       .  S
C1385      C1753   1.451       .  S
C1385      C1386   1.388       .  A
C1386      H1389   1.085       .  S
C1390      C1741   1.491       .  S
C1390      C2051   1.412       .  A
C1390      C1395   1.414       .  A
C1391      C2050   1.412       .  A
C1391      C1392   1.410       .  A
C1391      H1396   1.083       .  S
C1392      C1957   1.476   1_565  S
C1392      C1393   1.389       .  A
C1393      C1394   1.391       .  A
C1393      H1397   1.086   1_565  S
C1394      C1816   1.472       .  S
C1394      C2055   1.405       .  A
C1395      C2054   1.405       .  A
C1395      H1398   1.084       .  S
C1399      C1972   1.470       .  S
C1399      C1400   1.397       .  A
C1399      C1404   1.387       .  A
C1400      C1401   1.413       .  A
C1400      H1405   1.083       .  S
C1401      C1801   1.516       .  S
C1401      C1402   1.426   1_545  A
C1402      C1403   1.421       .  A
C1402      H2066   1.082       .  S
C1403      C2389   1.495       .  S
C1403      C1404   1.398   1_565  A
C1404      H1407   1.085       .  S
H1406      C2062   1.082       .  S
C1408      C1720   1.489       .  S
C1408      C1413   1.402       .  A
C1409      C1410   1.408       .  A
C1409      H1414   1.083   1_655  S
C1410      C1873   1.482       .  S
C1410      C1411   1.393       .  A
C1411      C1412   1.401       .  A
C1411      H1415   1.084       .  S
C1412      C1825   1.483       .  S
C1413      H1416   1.083       .  S
C1417      C1924   1.497       .  S
C1417      C1418   1.417       .  A
C1417      C1422   1.405       .  A
C1418      C1419   1.421       .  A
C1418      H1423   1.083       .  S
C1419      C1789   1.511       .  S
C1419      C1420   1.410       .  A
C1420      C1421   1.407       .  A
C1420      H1424   1.083       .  S
C1421      C1705   1.494       .  S
C1421      C1422   1.401       .  A
C1422      H1425   1.084       .  S
C1426      C1912   1.484       .  S
C1426      C1427   1.411       .  A
C1426      C1431   1.401       .  A
C1427      C1428   1.411       .  A
C1427      H1432   1.083       .  S
C1428      C1765   1.485       .  S
C1428      C1429   1.398       .  A
C1429      C1430   1.399       .  A
C1429      H1433   1.084       .  S
C1430      C1693   1.485       .  S
C1430      C1431   1.405       .  A
C1431      H1434   1.083       .  S
O1435     Zr1471   2.388       .  S
O1435      C1446   1.280       .  A
O1436     Zr1470   2.422       .  S
O1436      C1447   1.289       .  A
O1437     Zr1443   2.419       .  S
O1437      C1448   1.289       .  A
O1438     Zr1443   2.410       .  S
O1438      C1449   1.287       .  A
O1439     Zr1473   2.486       .  S
O1439      C1449   1.299       .  A
O1440     Zr1472   2.499       .  S
O1440      C1448   1.302       .  A
O1441     Zr1443   2.422       .  S
O1441      C1447   1.290       .  A
O1442     Zr1443   2.433       .  S
O1442      C1446   1.291       .  A
Zr1443     O1444   2.358       .  S
Zr1443     O1445   2.351       .  S
Zr1443     O1453   2.360       .  S
Zr1443     O1451   2.333       .  S
O1444     Zr1470   2.346       .  S
O1444     Zr1473   2.319       .  S
O1445     Zr1471   2.289       .  S
O1445     Zr1472   2.360       .  S
C1446      C1756   1.471       .  S
C1447      C1645   1.481       .  S
C1448      C1717   1.480       .  S
C1449      C1657   1.505       .  S
H1450      O1451   0.964       .  S
O1451     Zr1470   2.340       .  S
O1451     Zr1472   2.336       .  S
H1452      O1453   0.965       .  S
O1453     Zr1471   2.359       .  S
O1453     Zr1473   2.349       .  S
O1454     Zr1470   2.400       .  S
O1454      C1477   1.285       .  A
O1455     Zr1471   2.372       .  S
O1455      C1478   1.278       .  A
O1456     Zr1472   2.418       .  S
O1456      C1479   1.290       .  A
O1457     Zr1473   2.400       .  S
O1457      C1480   1.284       .  A
O1458     Zr1473   2.411       .  S
O1458      C1481   1.283       .  A
O1459     Zr1472   2.368       .  S
O1459      C1482   1.265       .  A
O1460     Zr1474   2.409       .  S
O1460      C1483   1.284       .  A
O1461     Zr1474   2.376       .  S
O1461      C1484   1.276       .  A
O1462     Zr1472   2.477       .  S
O1462      C1483   1.299       .  A
O1463     Zr1473   2.488       .  S
O1463      C1484   1.296       .  A
O1464     Zr1470   2.453       .  S
O1464      C1479   1.296       .  A
O1465     Zr1471   2.545       .  S
O1465      C1482   1.307       .  A
O1466     Zr1471   2.459       .  S
O1466      C1481   1.293       .  A
O1467     Zr1470   2.493       .  S
O1467      C1480   1.301       .  A
O1468     Zr1474   2.470       .  S
O1468      C1477   1.298       .  A
O1469     Zr1474   2.470       .  S
O1469      C1478   1.291       .  A
Zr1470     O1476   2.379       .  S
Zr1470     O1488   2.370       .  S
Zr1471     O1475   2.355       .  S
Zr1471     O1486   2.324       .  S
Zr1472     O1476   2.356       .  S
Zr1472     O1486   2.375       .  S
Zr1473     O1475   2.341       .  S
Zr1473     O1488   2.345       .  S
Zr1474     O1475   2.334       .  S
Zr1474     O1476   2.318       .  S
Zr1474     O1488   2.342       .  S
Zr1474     O1486   2.333       .  S
C1477      C1669   1.475       .  S
C1478      C1696   1.494       .  S
C1479      C1681   1.460       .  S
C1480      C1621   1.485       .  S
C1481      C1708   1.481       .  S
C1482      C1744   1.508       .  S
C1483      C1732   1.485       .  S
C1484      C1633   1.475       .  S
H1485      O1486   0.965       .  S
H1487      O1488   0.965       .  S
C1489      C1897   1.517   1_554  S
C1489      C1490   1.417   1_554  A
C1489      C1494   1.421       .  A
C1490      C1491   1.411   1_556  A
C1490      H1495   1.081       .  S
C1491      C1612   1.493       .  S
C1491      C1492   1.399       .  A
C1492      C1493   1.398       .  A
C1493      C1494   1.415       .  A
C1494      H1497   1.082       .  S
C1498      C1609   1.497       .  S
C1498      C2159   1.407   1_545  A
C1499      C1549   1.463       .  S
C1499      C2158   1.407       .  A
C1499      C1500   1.402       .  A
C1500      C1600   1.487       .  S
C1501      C1588   1.495       .  S
C1501      C1502   1.419       .  A
C1502      C1573   1.475       .  S
C1502      C2163   1.425       .  A
C1503      C1561   1.488       .  S
C1503      C2162   1.425       .  A
C1504      C1684   1.480   1_556  S
C1504      C1505   1.397       .  A
C1504      C1509   1.406       .  A
C1505      C2166   1.390       .  A
C1505      H1510   1.084       .  S
C1506      C1948   1.459       .  S
C1506      C2165   1.390   1_545  A
C1506      C1507   1.396       .  A
C1507      C2168   1.401       .  A
C1507      H1511   1.084       .  S
C1508      C1576   1.483       .  S
C1508      C2167   1.401       .  A
C1508      C1509   1.408       .  A
C1509      H1512   1.082   1_556  S
C1513      C1648   1.458       .  S
C1513      C1518   1.402       .  A
C1514      C1515   1.384       .  A
C1514      H1519   1.086       .  S
C1515      C1885   1.465       .  S
C1515      C1516   1.401       .  A
C1516      C1517   1.416       .  A
C1516      H1520   1.083       .  S
C1517      C1585   1.493   1_655  S
C1518      H1521   1.083       .  S
C1522      C1624   1.501       .  S
C1522      C1523   1.413       .  A
C1522      C1527   1.410       .  A
C1523      C1524   1.408       .  A
C1523      H1528   1.083       .  S
C1524      C1837   1.496       .  S
C1524      C1525   1.402       .  A
C1525      C1526   1.403       .  A
C1525      H1529   1.084       .  S
C1526      C1564   1.481       .  S
C1526      C1527   1.406       .  A
C1527      H1530   1.083       .  S
C1531      C2593   1.475       .  S
C1531      C1532   1.411       .  A
C1531      C1536   1.395       .  A
C1532      C1533   1.410       .  A
C1532      H1537   1.083       .  S
C1533      C1672   1.471       .  S
C1533      C1534   1.396       .  A
C1534      C1535   1.389       .  A
C1534      H1538   1.085       .  S
C1535      C1552   1.462       .  S
C1535      C1536   1.396       .  A
C1536      H2199   1.085       .  S
H1539      C2196   1.085   1_545  S
C1540      C1849   1.481   1_554  S
C1540      C1541   1.405       .  A
C1540      C1545   1.401       .  A
C1541      C1542   1.403       .  A
C1541      H1546   1.084       .  S
C1542      C1636   1.484       .  S
C1542      C1543   1.412       .  A
C1543      C1544   1.404       .  A
C1543      H1547   1.084       .  S
C1544      C1597   1.483       .  S
C1544      C1545   1.397       .  A
C1545      H1548   1.085   1_554  S
C1549      C1550   1.395       .  A
C1549      C1554   1.413       .  A
C1550      C1551   1.395       .  A
C1550      H1559   1.083   1_556  S
C1551      C1552   1.414       .  A
C1551      S1555   1.806   1_556  S
C1552      C1553   1.396       .  A
C1553      C1554   1.386       .  A
C1553      H2220   1.084       .  S
C1554      S2216   1.805       .  S
S1555      H1558   1.407       .  S
S1556      C2214   1.805       .  S
S1556      H1557   1.400       .  S
H1560      C2213   1.084       .  S
C1561      C1562   1.403       .  A
C1561      C1566   1.415       .  A
C1562      C1563   1.397       .  A
C1562      H1571   1.081       .  S
C1563      C1564   1.410       .  A
C1563      S1567   1.804       .  S
C1564      C1565   1.404       .  A
C1565      C1566   1.405       .  A
C1565      H1572   1.084   1_556  S
C1566      S1568   1.806   1_556  S
S1567      H1570   1.406       .  S
S1568      H1569   1.402       .  S
C1573      C2234   1.401   1_556  A
C1573      C1578   1.412       .  A
C1574      C2233   1.401   1_554  A
C1574      C1575   1.395       .  A
C1574      H1583   1.083       .  S
C1575      C2236   1.414   1_554  A
C1575      S1579   1.804       .  S
C1576      C2235   1.414   1_556  A
C1576      C1577   1.406       .  A
C1577      C1578   1.394       .  A
C1577      H1584   1.084       .  S
C1578      S1580   1.806       .  S
S1579      H1582   1.407       .  S
S1580      H1581   1.397       .  S
C1585      C1586   1.403       .  A
C1585      C1590   1.419   1_556  A
C1586      C1587   1.395       .  A
C1586      H1595   1.084       .  S
C1587      S1591   1.801   1_455  S
C1588      C1589   1.403   1_556  A
C1589      H1596   1.082       .  S
S1591      H1594   1.389       .  S
C1597      C1598   1.401       .  A
C1597      C1602   1.418   1_554  A
C1598      C1599   1.402       .  A
C1598      H1607   1.084       .  S
C1599      C1600   1.417   1_554  A
C1599      S1603   1.806       .  S
C1600      C1601   1.396       .  A
C1601      C1602   1.394       .  A
C1601      H1608   1.082       .  S
C1602      S1604   1.802       .  S
S1603      H1606   1.403       .  S
S1604      H1605   1.405       .  S
C1609      C1614   1.414       .  A
C1610      H1619   1.084       .  S
C1611      C1612   1.416       .  A
C1612      C1613   1.406   1_554  A
C1613      C1614   1.410       .  A
C1613      H1620   1.083       .  S
C1614      S1616   1.801       .  S
S1615      H1618   1.407       .  S
S1616      H1617   1.407       .  S
C1621      C1622   1.405   1_554  A
C1621      C1626   1.413       .  A
C1622      C1623   1.413       .  A
C1622      H1631   1.084       .  S
C1623      C1624   1.423       .  A
C1623      S1627   1.802       .  S
C1624      C1625   1.402       .  A
C1625      C1626   1.393   1_556  A
C1625      H1632   1.083       .  S
C1626      S1628   1.796       .  S
S1627      H1630   1.407       .  S
S1628      H1629   1.403       .  S
C1633      C1634   1.405       .  A
C1633      C1638   1.413       .  A
C1634      C1635   1.389       .  A
C1634      H1643   1.085       .  S
C1635      C1636   1.409       .  A
C1635      S1639   1.805       .  S
C1636      C1637   1.410       .  A
C1637      C1638   1.412       .  A
C1637      H1644   1.083       .  S
C1638      S1640   1.805       .  S
S1639      H1642   1.406   1_554  S
S1640      H1641   1.402       .  S
C1645      C1646   1.413       .  A
C1645      C1650   1.420       .  A
C1646      C1647   1.397       .  A
C1646      H1655   1.082       .  S
C1647      C1648   1.401       .  A
C1647      S1651   1.807       .  S
C1648      C1649   1.398       .  A
C1649      C1650   1.395       .  A
C1649      H1656   1.083   1_554  S
C1650      S1652   1.811   1_554  S
S1652      H1653   1.407       .  S
C1657      C1658   1.414       .  A
C1657      C1662   1.417       .  A
C1658      C1659   1.405       .  A
C1658      H1667   1.084       .  S
C1659      C1660   1.412       .  A
C1660      C1661   1.410       .  A
C1661      C1662   1.404       .  A
C1661      H1668   1.084       .  S
C1662      S1664   1.799       .  S
S1663      H1666   1.407       .  S
S1664      H1665   1.408       .  S
C1669      C1670   1.401       .  A
C1669      C1674   1.417   1_554  A
C1670      C1671   1.396       .  A
C1670      H1679   1.084       .  S
C1671      C1672   1.412   1_554  A
C1671      S1675   1.802       .  S
C1672      C1673   1.402       .  A
C1673      C1674   1.400       .  A
C1673      H1680   1.084       .  S
C1674      S1676   1.803       .  S
S1675      H1678   1.404   1_554  S
S1676      H1677   1.405   1_556  S
C1681      C1682   1.395       .  A
C1681      C1686   1.408       .  A
C1682      C1683   1.395       .  A
C1682      H1691   1.084       .  S
C1683      C1684   1.421       .  A
C1683      S2347   1.806       .  S
C1684      C1685   1.402       .  A
C1685      C1686   1.395       .  A
C1685      H1692   1.084       .  S
C1686      S1688   1.796       .  S
S1687      C2343   1.806   1_545  S
S1687      H1690   1.407       .  S
S1688      H1689   1.405       .  S
C1693      C1694   1.410       .  A
C1693      C1698   1.408       .  A
C1694      C1695   1.402       .  A
C1694      H1703   1.084       .  S
C1695      C1696   1.414       .  A
C1695      S1699   1.800       .  S
C1696      C1697   1.415       .  A
C1697      C1698   1.394       .  A
C1697      H1704   1.081       .  S
C1698      S1700   1.811       .  S
S1699      H1702   1.408       .  S
S1700      H1701   1.407       .  S
C1705      C1706   1.403       .  A
C1705      C1710   1.420       .  A
C1706      C1707   1.398       .  A
C1706      H1715   1.084       .  S
C1707      C1708   1.419       .  A
C1707      S1711   1.805       .  S
C1708      C1709   1.400       .  A
C1709      C1710   1.401       .  A
C1709      H1716   1.084       .  S
C1710      S1712   1.795       .  S
S1711      H1714   1.407       .  S
S1712      H1713   1.407       .  S
C1717      C1718   1.403       .  A
C1717      C1722   1.417       .  A
C1718      C1719   1.411       .  A
C1718      H1727   1.083       .  S
C1719      C1720   1.418       .  A
C1719      S1723   1.806       .  S
C1720      C1721   1.396       .  A
C1721      C1722   1.395       .  A
C1721      H1728   1.084       .  S
C1722      S1724   1.796       .  S
S1723      H1726   1.407       .  S
S1724      H1725   1.394       .  S
C1729      C2063   1.495       .  S
C1729      C1730   1.406       .  A
C1729      C1734   1.418       .  A
C1730      C1731   1.410       .  A
C1730      H1739   1.084       .  S
C1731      C1732   1.419       .  A
C1731      S1735   1.803       .  S
C1732      C1733   1.402       .  A
C1733      C1734   1.397       .  A
C1733      H1740   1.083       .  S
C1734      S1736   1.806       .  S
S1735      H1738   1.407       .  S
S1736      H1737   1.407       .  S
C1741      C1742   1.391       .  A
C1741      C1746   1.417       .  A
C1742      C1743   1.396       .  A
C1742      H1751   1.083       .  S
C1743      C1744   1.437       .  A
C1743      S1747   1.819       .  S
C1744      C1745   1.409       .  A
C1745      C1746   1.417       .  A
C1745      H1752   1.083       .  S
C1746      S1748   1.801       .  S
S1747      H1750   1.406       .  S
S1748      H1749   1.405       .  S
C1753      C1754   1.395       .  A
C1753      C1758   1.406       .  A
C1754      C1755   1.389       .  A
C1754      H1763   1.085       .  S
C1755      C1756   1.421       .  A
C1755      S1759   1.805       .  S
C1756      C1757   1.407       .  A
C1757      C1758   1.390       .  A
C1757      H1764   1.084       .  S
C1758      S1760   1.805       .  S
S1759      H1762   1.399       .  S
S1760      H1761   1.405       .  S
C1765      C1766   1.400       .  A
C1765      C1770   1.416       .  A
C1766      C1767   1.403       .  A
C1766      H1775   1.084       .  S
C1767      C1768   1.421       .  A
C1767      S1771   1.806       .  S
C1768      C1769   1.402       .  A
C1769      C1770   1.396       .  A
C1769      H1776   1.084       .  S
C1770      S1772   1.805       .  S
S1771      H1774   1.401       .  S
S1772      H1773   1.407       .  S
C1777      C1778   1.397       .  A
C1777      C1782   1.410       .  A
C1778      C1779   1.389       .  A
C1778      H1787   1.085       .  S
C1779      C1780   1.416       .  A
C1780      C1781   1.401       .  A
C1781      C1782   1.398       .  A
C1781      H1788   1.082       .  S
C1782      S1784   1.807       .  S
S1783      H1786   1.401       .  S
S1784      H1785   1.407       .  S
C1789      C1790   1.404       .  A
C1789      C1794   1.420       .  A
C1790      C1791   1.410       .  A
C1790      H1799   1.084       .  S
C1791      C1792   1.427       .  A
C1791      S1795   1.798       .  S
C1792      C1793   1.408       .  A
C1793      C1794   1.408       .  A
C1793      H1800   1.084       .  S
C1794      S1796   1.804       .  S
S1795      H1798   1.384       .  S
S1796      H1797   1.407       .  S
C1801      C1802   1.412       .  A
C1801      C1806   1.419       .  A
C1802      C1803   1.403       .  A
C1802      H1811   1.083       .  S
C1803      C1804   1.417       .  A
C1803      S1807   1.800       .  S
C1804      C1805   1.410       .  A
C1805      C1806   1.411       .  A
C1805      H1812   1.084       .  S
C1806      S1808   1.801       .  S
S1807      H1810   1.384       .  S
S1808      H1809   1.407       .  S
C1813      C1814   1.406       .  A
C1813      C2478   1.417       .  A
C1814      C1815   1.403       .  A
C1814      H1823   1.083   1_565  S
C1815      C1816   1.412       .  A
C1815      S1819   1.802       .  S
C1816      C2477   1.398       .  A
C1817      C2476   1.398       .  A
C1817      C1818   1.391       .  A
C1817      H1824   1.085       .  S
C1818      C2473   1.417       .  A
C1818      S1820   1.805       .  S
S1819      H1822   1.403       .  S
S1820      H1821   1.398       .  S
C1825      C1826   1.406       .  A
C1826      C1827   1.390       .  A
C1826      H1835   1.083       .  S
C1827      C1828   1.414       .  A
C1827      S1831   1.801       .  S
C1829      C1830   1.395       .  A
C1829      H1836   1.084       .  S
C1830      S1832   1.803       .  S
S1831      H1834   1.386       .  S
S1832      H1833   1.407       .  S
C1837      C1838   1.405       .  A
C1837      C1842   1.421       .  A
C1838      C1839   1.401       .  A
C1838      H1847   1.084       .  S
C1839      C1840   1.417       .  A
C1839      S1843   1.805       .  S
C1840      C1841   1.404       .  A
C1841      C1842   1.405       .  A
C1841      H1848   1.084       .  S
C1842      S1844   1.804       .  S
S1843      H1846   1.407       .  S
S1844      H1845   1.407       .  S
C1849      C1850   1.403       .  A
C1849      C1854   1.408       .  A
C1850      C1851   1.395       .  A
C1850      H1859   1.078       .  S
C1851      C1852   1.416       .  A
C1851      S1855   1.812       .  S
C1852      C1853   1.413       .  A
C1853      C1854   1.399       .  A
C1853      H1860   1.083       .  S
C1854      S1856   1.804   1_556  S
S1855      H1858   1.407       .  S
S1856      H1857   1.406       .  S
C1861      C1862   1.399       .  A
C1861      C1866   1.407       .  A
C1862      C1863   1.391       .  A
C1862      H1871   1.084       .  S
C1863      C1864   1.413       .  A
C1864      C1865   1.403       .  A
C1865      C1866   1.388       .  A
C1865      H1872   1.084       .  S
C1866      S1868   1.802       .  S
S1867      H1870   1.407       .  S
S1868      H1869   1.406       .  S
C1873      C1874   1.408       .  A
C1873      C1878   1.408       .  A
C1874      C1875   1.405       .  A
C1874      H1883   1.084       .  S
C1875      C1876   1.414       .  A
C1875      S1879   1.802       .  S
C1876      C1877   1.411       .  A
C1877      C1878   1.400       .  A
C1877      H1884   1.084       .  S
C1878      S1880   1.804       .  S
S1879      H1882   1.407       .  S
S1880      H1881   1.403       .  S
C1885      C1886   1.394       .  A
C1885      C1890   1.410       .  A
C1886      C1887   1.391       .  A
C1886      H1895   1.085       .  S
C1887      C1888   1.422       .  A
C1887      S1891   1.797       .  S
C1888      C1889   1.406       .  A
C1889      C1890   1.400       .  A
C1889      H1896   1.084       .  S
S1891      H1894   1.385       .  S
S1892      H1893   1.405       .  S
C1897      C1898   1.415       .  A
C1897      C1902   1.416       .  A
C1898      C1899   1.418       .  A
C1898      H1907   1.083   1_556  S
C1899      C1900   1.416       .  A
C1899      S1903   1.800       .  S
C1900      C1901   1.411       .  A
C1901      C1902   1.407       .  A
C1901      H1908   1.080       .  S
C1902      S1904   1.809       .  S
S1903      H1906   1.401       .  S
S1904      H1905   1.407       .  S
C1909      C1910   1.405       .  A
C1909      C1914   1.419       .  A
C1910      C1911   1.412       .  A
C1910      H1919   1.084       .  S
C1911      C1912   1.418       .  A
C1911      S1915   1.804       .  S
C1912      C1913   1.395       .  A
C1913      C1914   1.395       .  A
C1913      H1920   1.085       .  S
C1914      S1916   1.800       .  S
S1915      H1918   1.404       .  S
S1916      H1917   1.392       .  S
C1921      C1922   1.406       .  A
C1921      C1926   1.414       .  A
C1922      C1923   1.392       .  A
C1922      H1931   1.085       .  S
C1923      C1924   1.412       .  A
C1923      S1927   1.802       .  S
C1924      C1925   1.411       .  A
C1925      C1926   1.418       .  A
C1925      H1932   1.083       .  S
C1926      S1928   1.798       .  S
S1927      H1930   1.406       .  S
S1928      H1929   1.406       .  S
C1933      C2191   1.475   1_545  S
C1933      C1934   1.398       .  A
C1933      C1938   1.415       .  A
C1934      C1935   1.402       .  A
C1934      H1943   1.083   1_545  S
C1935      C1936   1.418       .  A
C1935      S1939   1.809       .  S
C1936      C1937   1.402       .  A
C1937      C1938   1.400       .  A
C1937      H1944   1.084       .  S
C1938      S1940   1.804       .  S
S1939      H1942   1.407       .  S
S1940      H1941   1.404       .  S
C1945      C1946   1.411       .  A
C1945      C1950   1.423       .  A
C1946      C1947   1.397       .  A
C1946      H1955   1.083       .  S
C1947      C1948   1.406       .  A
C1947      S2611   1.804   1_545  S
C1948      C1949   1.394       .  A
C1949      C1950   1.387       .  A
C1949      H1956   1.085       .  S
C1950      S1952   1.805       .  S
S1951      C2607   1.804       .  S
S1951      H1954   1.405       .  S
S1952      H1953   1.405       .  S
C1957      C1958   1.395       .  A
C1957      C1962   1.420       .  A
C1958      C1959   1.393       .  A
C1958      H1967   1.084       .  S
C1959      C1960   1.415       .  A
C1959      S1963   1.794       .  S
C1960      C1961   1.399       .  A
C1961      C1962   1.403       .  A
C1961      H1968   1.084       .  S
C1962      S1964   1.804       .  S
S1963      H1966   1.403       .  S
S1964      H1965   1.406   1_545  S
C1969      C1970   1.406       .  A
C1969      C1974   1.430       .  A
C1970      C1971   1.399       .  A
C1970      H1979   1.083       .  S
C1971      C1972   1.412       .  A
C1971      S1975   1.805       .  S
C1972      C1973   1.393       .  A
C1973      C1974   1.395       .  A
C1973      H1980   1.084       .  S
C1974      S1976   1.804       .  S
S1975      H1978   1.404   1_545  S
S1976      H1977   1.406       .  S
O1981     Zr2017   2.388       .  S
O1981      C1992   1.280       .  A
O1982     Zr2016   2.402       .  S
O1982      C1993   1.284       .  A
O1983     Zr1989   2.386       .  S
O1983      C1994   1.282       .  A
O1984     Zr1989   2.387       .  S
O1984      C1995   1.282       .  A
O1985     Zr2019   2.491       .  S
O1985      C1995   1.301       .  A
O1986     Zr2018   2.484       .  S
O1986      C1994   1.300       .  A
O1987     Zr1989   2.439       .  S
O1987      C1993   1.293       .  A
O1988     Zr1989   2.474       .  S
O1988      C1992   1.299       .  A
Zr1989     O1990   2.342       .  S
Zr1989     O1991   2.322       .  S
Zr1989     O1999   2.319       .  S
Zr1989     O1997   2.336       .  S
O1990     Zr2016   2.355       .  S
O1990     Zr2019   2.334       .  S
O1991     Zr2017   2.350       .  S
O1991     Zr2018   2.341       .  S
C1992      C2629   1.493       .  S
C1993      C2605   1.483       .  S
C1994      C2596   1.480       .  S
C1995      C2620   1.469       .  S
H1996      O1997   0.965       .  S
O1997     Zr2016   2.328       .  S
O1997     Zr2018   2.331       .  S
H1998      O1999   0.962       .  S
O1999     Zr2017   2.322       .  S
O1999     Zr2019   2.340       .  S
O2000     Zr2016   2.420       .  S
O2000      C2023   1.291       .  A
O2001     Zr2017   2.405       .  S
O2001      C2024   1.286       .  A
O2002     Zr2018   2.377       .  S
O2002      C2025   1.281       .  A
O2003     Zr2019   2.436       .  S
O2003      C2026   1.293       .  A
O2004     Zr2019   2.371       .  S
O2004      C2027   1.283       .  A
O2005     Zr2018   2.376       .  S
O2005      C2028   1.282       .  A
O2006     Zr2020   2.382       .  S
O2006      C2029   1.281       .  A
O2007     Zr2020   2.413       .  S
O2007      C2030   1.286       .  A
O2008     Zr2018   2.492       .  S
O2008      C2029   1.300       .  A
O2009     Zr2019   2.494       .  S
O2009      C2030   1.301       .  A
O2010     Zr2016   2.559       .  S
O2010      C2025   1.315       .  A
O2011     Zr2017   2.459       .  S
O2011      C2028   1.296       .  A
O2012     Zr2017   2.522       .  S
O2012      C2027   1.306       .  A
O2013     Zr2016   2.466       .  S
O2013      C2026   1.298       .  A
O2014     Zr2020   2.447       .  S
O2014      C2023   1.293       .  A
O2015     Zr2020   2.488       .  S
O2015      C2024   1.301       .  A
Zr2016     O2022   2.314       .  S
Zr2016     O2034   2.375       .  S
Zr2017     O2021   2.325       .  S
Zr2017     O2032   2.358       .  S
Zr2018     O2022   2.308       .  S
Zr2018     O2032   2.359       .  S
Zr2019     O2021   2.340       .  S
Zr2019     O2034   2.342       .  S
Zr2020     O2021   2.316       .  S
Zr2020     O2022   2.335       .  S
Zr2020     O2034   2.351       .  S
Zr2020     O2032   2.335       .  S
C2023      C2512   1.487       .  S
C2024      C2536   1.492       .  S
C2025      C2560   1.505       .  S
C2026      C2500   1.487       .  S
C2027      C2581   1.492       .  S
C2028      C2521   1.447       .  S
C2029      C2548   1.472       .  S
C2030      C2569   1.484       .  S
H2031      O2032   0.966       .  S
H2033      O2034   0.966       .  S
C2035      C2428   1.496       .  S
C2035      C2036   1.416   1_655  A
C2036      C2488   1.488   1_455  S
C2037      C2473   1.491       .  S
C2037      C2038   1.418       .  A
C2038      C2452   1.525       .  S
C2038      C2039   1.430       .  A
C2039      C2440   1.473       .  S
C2040      C2464   1.514       .  S
C2041      C2042   1.398       .  A
C2041      C2046   1.392       .  A
C2042      C2043   1.401       .  A
C2042      H2047   1.084       .  S
C2043      C2437   1.466       .  S
C2043      C2044   1.399       .  A
C2044      C2045   1.397       .  A
C2044      H2048   1.084       .  S
C2045      C2413   1.451       .  S
C2045      C2046   1.388       .  A
C2046      H2049   1.085       .  S
C2050      C2401   1.491       .  S
C2050      C2055   1.414       .  A
C2051      C2052   1.410       .  A
C2051      H2056   1.083       .  S
C2052      C2617   1.476       .  S
C2052      C2053   1.389       .  A
C2053      C2054   1.391       .  A
C2053      H2057   1.086       .  S
C2054      C2476   1.472       .  S
C2055      H2058   1.084       .  S
C2059      C2632   1.470       .  S
C2059      C2060   1.397       .  A
C2059      C2064   1.387       .  A
C2060      C2061   1.413       .  A
C2060      H2065   1.083       .  S
C2061      C2461   1.516       .  S
C2061      C2062   1.426       .  A
C2062      C2063   1.421       .  A
C2063      C2064   1.398       .  A
C2064      H2067   1.085       .  S
C2068      C2380   1.489       .  S
C2068      C2073   1.402       .  A
C2069      C2070   1.408       .  A
C2069      H2074   1.083   1_655  S
C2070      C2533   1.482       .  S
C2070      C2071   1.393       .  A
C2071      C2072   1.401       .  A
C2071      H2075   1.084       .  S
C2072      C2485   1.483       .  S
C2073      H2076   1.083       .  S
C2077      C2584   1.497       .  S
C2077      C2078   1.417       .  A
C2077      C2082   1.405       .  A
C2078      C2079   1.421       .  A
C2078      H2083   1.083       .  S
C2079      C2449   1.511       .  S
C2079      C2080   1.410       .  A
C2080      C2081   1.407       .  A
C2080      H2084   1.083       .  S
C2081      C2365   1.494       .  S
C2081      C2082   1.401       .  A
C2082      H2085   1.084       .  S
C2086      C2572   1.484       .  S
C2086      C2087   1.411       .  A
C2086      C2091   1.401       .  A
C2087      C2088   1.411       .  A
C2087      H2092   1.083       .  S
C2088      C2425   1.485       .  S
C2088      C2089   1.398       .  A
C2089      C2090   1.399       .  A
C2089      H2093   1.084       .  S
C2090      C2353   1.485       .  S
C2090      C2091   1.405       .  A
C2091      H2094   1.083       .  S
O2095     Zr2131   2.388       .  S
O2095      C2106   1.280       .  A
O2096     Zr2130   2.422       .  S
O2096      C2107   1.289       .  A
O2097     Zr2103   2.419       .  S
O2097      C2108   1.289       .  A
O2098     Zr2103   2.410       .  S
O2098      C2109   1.287       .  A
O2099     Zr2133   2.486       .  S
O2099      C2109   1.299       .  A
O2100     Zr2132   2.499       .  S
O2100      C2108   1.302       .  A
O2101     Zr2103   2.422       .  S
O2101      C2107   1.290       .  A
O2102     Zr2103   2.433       .  S
O2102      C2106   1.291       .  A
Zr2103     O2104   2.358       .  S
Zr2103     O2105   2.351       .  S
Zr2103     O2113   2.360       .  S
Zr2103     O2111   2.333       .  S
O2104     Zr2130   2.346       .  S
O2104     Zr2133   2.319       .  S
O2105     Zr2131   2.289       .  S
O2105     Zr2132   2.360       .  S
C2106      C2416   1.471       .  S
C2107      C2305   1.481       .  S
C2108      C2377   1.480       .  S
C2109      C2317   1.505       .  S
H2110      O2111   0.964       .  S
O2111     Zr2130   2.340       .  S
O2111     Zr2132   2.336       .  S
H2112      O2113   0.965       .  S
O2113     Zr2131   2.359       .  S
O2113     Zr2133   2.349       .  S
O2114     Zr2130   2.400       .  S
O2114      C2137   1.285       .  A
O2115     Zr2131   2.372       .  S
O2115      C2138   1.278       .  A
O2116     Zr2132   2.418       .  S
O2116      C2139   1.290       .  A
O2117     Zr2133   2.400       .  S
O2117      C2140   1.284       .  A
O2118     Zr2133   2.411       .  S
O2118      C2141   1.283       .  A
O2119     Zr2132   2.368       .  S
O2119      C2142   1.265       .  A
O2120     Zr2134   2.409       .  S
O2120      C2143   1.284       .  A
O2121     Zr2134   2.376       .  S
O2121      C2144   1.276       .  A
O2122     Zr2132   2.477       .  S
O2122      C2143   1.299       .  A
O2123     Zr2133   2.488       .  S
O2123      C2144   1.296       .  A
O2124     Zr2130   2.453       .  S
O2124      C2139   1.296       .  A
O2125     Zr2131   2.545       .  S
O2125      C2142   1.307       .  A
O2126     Zr2131   2.459       .  S
O2126      C2141   1.293       .  A
O2127     Zr2130   2.493       .  S
O2127      C2140   1.301       .  A
O2128     Zr2134   2.470       .  S
O2128      C2137   1.298       .  A
O2129     Zr2134   2.470       .  S
O2129      C2138   1.291       .  A
Zr2130     O2136   2.379       .  S
Zr2130     O2148   2.370       .  S
Zr2131     O2135   2.355       .  S
Zr2131     O2146   2.324       .  S
Zr2132     O2136   2.356       .  S
Zr2132     O2146   2.375       .  S
Zr2133     O2135   2.341       .  S
Zr2133     O2148   2.345       .  S
Zr2134     O2135   2.334       .  S
Zr2134     O2136   2.318       .  S
Zr2134     O2148   2.342       .  S
Zr2134     O2146   2.333       .  S
C2137      C2329   1.475       .  S
C2138      C2356   1.494       .  S
C2139      C2341   1.460       .  S
C2140      C2281   1.485       .  S
C2141      C2368   1.481       .  S
C2142      C2404   1.508       .  S
C2143      C2392   1.485       .  S
C2144      C2293   1.475       .  S
H2145      O2146   0.965       .  S
H2147      O2148   0.965       .  S
C2149      C2557   1.517   1_554  S
C2149      C2150   1.417   1_554  A
C2149      C2154   1.421       .  A
C2150      C2151   1.411   1_556  A
C2150      H2155   1.081       .  S
C2151      C2272   1.493       .  S
C2151      C2152   1.399       .  A
C2152      C2153   1.398       .  A
C2153      C2154   1.415       .  A
C2154      H2157   1.082       .  S
C2158      C2269   1.497       .  S
C2159      C2209   1.463       .  S
C2159      C2160   1.402       .  A
C2160      C2260   1.487       .  S
C2161      C2248   1.495       .  S
C2161      C2162   1.419   1_565  A
C2162      C2233   1.475       .  S
C2163      C2221   1.488       .  S
C2164      C2344   1.480   1_556  S
C2164      C2165   1.397       .  A
C2164      C2169   1.406       .  A
C2165      H2170   1.084       .  S
C2166      C2608   1.459       .  S
C2166      C2167   1.396       .  A
C2167      H2171   1.084       .  S
C2168      C2236   1.483       .  S
C2168      C2169   1.408   1_545  A
C2169      H2172   1.082   1_556  S
C2173      C2308   1.458       .  S
C2173      C2178   1.402       .  A
C2174      C2175   1.384       .  A
C2174      H2179   1.086       .  S
C2175      C2545   1.465       .  S
C2175      C2176   1.401       .  A
C2176      C2177   1.416       .  A
C2176      H2180   1.083       .  S
C2177      C2245   1.493   1_655  S
C2178      H2181   1.083       .  S
C2182      C2284   1.501       .  S
C2182      C2183   1.413       .  A
C2182      C2187   1.410       .  A
C2183      C2184   1.408       .  A
C2183      H2188   1.083       .  S
C2184      C2497   1.496       .  S
C2184      C2185   1.402       .  A
C2185      C2186   1.403       .  A
C2185      H2189   1.084       .  S
C2186      C2224   1.481       .  S
C2186      C2187   1.406       .  A
C2187      H2190   1.083       .  S
C2191      C2192   1.411       .  A
C2191      C2196   1.395       .  A
C2192      C2193   1.410       .  A
C2192      H2197   1.083       .  S
C2193      C2332   1.471       .  S
C2193      C2194   1.396       .  A
C2194      C2195   1.389       .  A
C2194      H2198   1.085       .  S
C2195      C2212   1.462       .  S
C2195      C2196   1.396       .  A
C2200      C2509   1.481   1_554  S
C2200      C2201   1.405       .  A
C2200      C2205   1.401       .  A
C2201      C2202   1.403       .  A
C2201      H2206   1.084       .  S
C2202      C2296   1.484       .  S
C2202      C2203   1.412       .  A
C2203      C2204   1.404       .  A
C2203      H2207   1.084       .  S
C2204      C2257   1.483       .  S
C2204      C2205   1.397       .  A
C2205      H2208   1.085   1_554  S
C2209      C2210   1.395       .  A
C2209      C2214   1.413       .  A
C2210      C2211   1.395       .  A
C2210      H2219   1.083   1_556  S
C2211      C2212   1.414       .  A
C2211      S2215   1.806   1_556  S
C2212      C2213   1.396       .  A
C2213      C2214   1.386       .  A
S2215      H2218   1.407       .  S
S2216      H2217   1.400       .  S
C2221      C2222   1.403       .  A
C2221      C2226   1.415       .  A
C2222      C2223   1.397       .  A
C2222      H2231   1.081       .  S
C2223      C2224   1.410       .  A
C2223      S2227   1.804       .  S
C2224      C2225   1.404       .  A
C2225      C2226   1.405       .  A
C2225      H2232   1.084   1_556  S
C2226      S2228   1.806   1_556  S
S2227      H2230   1.406       .  S
S2228      H2229   1.402       .  S
C2233      C2238   1.412       .  A
C2234      C2235   1.395       .  A
C2234      H2243   1.083       .  S
C2235      S2239   1.804       .  S
C2236      C2237   1.406       .  A
C2237      C2238   1.394       .  A
C2237      H2244   1.084       .  S
C2238      S2240   1.806       .  S
S2239      H2242   1.407       .  S
S2240      H2241   1.397       .  S
C2245      C2246   1.403       .  A
C2245      C2250   1.419   1_556  A
C2246      C2247   1.395       .  A
C2246      H2255   1.084       .  S
C2247      S2251   1.801   1_455  S
C2248      C2249   1.403   1_556  A
C2249      H2256   1.082       .  S
S2251      H2254   1.389       .  S
C2257      C2258   1.401       .  A
C2257      C2262   1.418   1_554  A
C2258      C2259   1.402       .  A
C2258      H2267   1.084       .  S
C2259      C2260   1.417   1_554  A
C2259      S2263   1.806       .  S
C2260      C2261   1.396       .  A
C2261      C2262   1.394       .  A
C2261      H2268   1.082       .  S
C2262      S2264   1.802       .  S
S2263      H2266   1.403       .  S
S2264      H2265   1.405       .  S
C2269      C2274   1.414       .  A
C2270      H2279   1.084       .  S
C2271      C2272   1.416       .  A
C2272      C2273   1.406   1_554  A
C2273      C2274   1.410       .  A
C2273      H2280   1.083       .  S
C2274      S2276   1.801       .  S
S2275      H2278   1.407       .  S
S2276      H2277   1.407       .  S
C2281      C2282   1.405   1_554  A
C2281      C2286   1.413       .  A
C2282      C2283   1.413       .  A
C2282      H2291   1.084       .  S
C2283      C2284   1.423       .  A
C2283      S2287   1.802       .  S
C2284      C2285   1.402       .  A
C2285      C2286   1.393   1_556  A
C2285      H2292   1.083       .  S
C2286      S2288   1.796       .  S
S2287      H2290   1.407       .  S
S2288      H2289   1.403       .  S
C2293      C2294   1.405       .  A
C2293      C2298   1.413       .  A
C2294      C2295   1.389       .  A
C2294      H2303   1.085       .  S
C2295      C2296   1.409       .  A
C2295      S2299   1.805       .  S
C2296      C2297   1.410       .  A
C2297      C2298   1.412       .  A
C2297      H2304   1.083       .  S
C2298      S2300   1.805       .  S
S2299      H2302   1.406   1_554  S
S2300      H2301   1.402       .  S
C2305      C2306   1.413       .  A
C2305      C2310   1.420       .  A
C2306      C2307   1.397       .  A
C2306      H2315   1.082       .  S
C2307      C2308   1.401       .  A
C2307      S2311   1.807       .  S
C2308      C2309   1.398       .  A
C2309      C2310   1.395       .  A
C2309      H2316   1.083   1_554  S
C2310      S2312   1.811   1_554  S
S2312      H2313   1.407       .  S
C2317      C2318   1.414       .  A
C2317      C2322   1.417       .  A
C2318      C2319   1.405       .  A
C2318      H2327   1.084       .  S
C2319      C2320   1.412       .  A
C2320      C2321   1.410       .  A
C2321      C2322   1.404       .  A
C2321      H2328   1.084       .  S
C2322      S2324   1.799       .  S
S2323      H2326   1.407       .  S
S2324      H2325   1.408       .  S
C2329      C2330   1.401       .  A
C2329      C2334   1.417   1_554  A
C2330      C2331   1.396       .  A
C2330      H2339   1.084       .  S
C2331      C2332   1.412   1_554  A
C2331      S2335   1.802       .  S
C2332      C2333   1.402       .  A
C2333      C2334   1.400       .  A
C2333      H2340   1.084       .  S
C2334      S2336   1.803       .  S
S2335      H2338   1.404   1_554  S
S2336      H2337   1.405   1_556  S
C2341      C2342   1.395       .  A
C2341      C2346   1.408       .  A
C2342      C2343   1.395       .  A
C2342      H2351   1.084       .  S
C2343      C2344   1.421       .  A
C2344      C2345   1.402       .  A
C2345      C2346   1.395       .  A
C2345      H2352   1.084       .  S
C2346      S2348   1.796       .  S
S2347      H2350   1.407       .  S
S2348      H2349   1.405       .  S
C2353      C2354   1.410       .  A
C2353      C2358   1.408       .  A
C2354      C2355   1.402       .  A
C2354      H2363   1.084       .  S
C2355      C2356   1.414       .  A
C2355      S2359   1.800       .  S
C2356      C2357   1.415       .  A
C2357      C2358   1.394       .  A
C2357      H2364   1.081       .  S
C2358      S2360   1.811       .  S
S2359      H2362   1.408       .  S
S2360      H2361   1.407       .  S
C2365      C2366   1.403       .  A
C2365      C2370   1.420       .  A
C2366      C2367   1.398       .  A
C2366      H2375   1.084       .  S
C2367      C2368   1.419       .  A
C2367      S2371   1.805       .  S
C2368      C2369   1.400       .  A
C2369      C2370   1.401       .  A
C2369      H2376   1.084       .  S
C2370      S2372   1.795       .  S
S2371      H2374   1.407       .  S
S2372      H2373   1.407       .  S
C2377      C2378   1.403       .  A
C2377      C2382   1.417       .  A
C2378      C2379   1.411       .  A
C2378      H2387   1.083       .  S
C2379      C2380   1.418       .  A
C2379      S2383   1.806       .  S
C2380      C2381   1.396       .  A
C2381      C2382   1.395       .  A
C2381      H2388   1.084       .  S
C2382      S2384   1.796       .  S
S2383      H2386   1.407       .  S
S2384      H2385   1.394       .  S
C2389      C2390   1.406       .  A
C2389      C2394   1.418       .  A
C2390      C2391   1.410       .  A
C2390      H2399   1.084       .  S
C2391      C2392   1.419       .  A
C2391      S2395   1.803       .  S
C2392      C2393   1.402       .  A
C2393      C2394   1.397       .  A
C2393      H2400   1.083       .  S
C2394      S2396   1.806       .  S
S2395      H2398   1.407       .  S
S2396      H2397   1.407       .  S
C2401      C2402   1.391       .  A
C2401      C2406   1.417       .  A
C2402      C2403   1.396       .  A
C2402      H2411   1.083       .  S
C2403      C2404   1.437       .  A
C2403      S2407   1.819       .  S
C2404      C2405   1.409       .  A
C2405      C2406   1.417       .  A
C2405      H2412   1.083       .  S
C2406      S2408   1.801       .  S
S2407      H2410   1.406       .  S
S2408      H2409   1.405       .  S
C2413      C2414   1.395       .  A
C2413      C2418   1.406       .  A
C2414      C2415   1.389       .  A
C2414      H2423   1.085       .  S
C2415      C2416   1.421       .  A
C2415      S2419   1.805       .  S
C2416      C2417   1.407       .  A
C2417      C2418   1.390       .  A
C2417      H2424   1.084       .  S
C2418      S2420   1.805       .  S
S2419      H2422   1.399       .  S
S2420      H2421   1.405       .  S
C2425      C2426   1.400       .  A
C2425      C2430   1.416       .  A
C2426      C2427   1.403       .  A
C2426      H2435   1.084       .  S
C2427      C2428   1.421       .  A
C2427      S2431   1.806       .  S
C2428      C2429   1.402       .  A
C2429      C2430   1.396       .  A
C2429      H2436   1.084       .  S
C2430      S2432   1.805       .  S
S2431      H2434   1.401       .  S
S2432      H2433   1.407       .  S
C2437      C2438   1.397       .  A
C2437      C2442   1.410       .  A
C2438      C2439   1.389       .  A
C2438      H2447   1.085       .  S
C2439      C2440   1.416       .  A
C2440      C2441   1.401       .  A
C2441      C2442   1.398       .  A
C2441      H2448   1.082       .  S
C2442      S2444   1.807       .  S
S2443      H2446   1.401       .  S
S2444      H2445   1.407       .  S
C2449      C2450   1.404       .  A
C2449      C2454   1.420       .  A
C2450      C2451   1.410       .  A
C2450      H2459   1.084       .  S
C2451      C2452   1.427       .  A
C2451      S2455   1.798       .  S
C2452      C2453   1.408       .  A
C2453      C2454   1.408       .  A
C2453      H2460   1.084       .  S
C2454      S2456   1.804       .  S
S2455      H2458   1.384       .  S
S2456      H2457   1.407       .  S
C2461      C2462   1.412       .  A
C2461      C2466   1.419       .  A
C2462      C2463   1.403       .  A
C2462      H2471   1.083       .  S
C2463      C2464   1.417       .  A
C2463      S2467   1.800       .  S
C2464      C2465   1.410       .  A
C2465      C2466   1.411       .  A
C2465      H2472   1.084       .  S
C2466      S2468   1.801       .  S
S2467      H2470   1.384       .  S
S2468      H2469   1.407       .  S
C2473      C2474   1.406       .  A
C2474      C2475   1.403       .  A
C2474      H2483   1.083       .  S
C2475      C2476   1.412       .  A
C2475      S2479   1.802       .  S
C2477      C2478   1.391       .  A
C2477      H2484   1.085       .  S
C2478      S2480   1.805       .  S
S2479      H2482   1.403       .  S
S2480      H2481   1.398       .  S
C2485      C2486   1.406       .  A
C2486      C2487   1.390       .  A
C2486      H2495   1.083       .  S
C2487      C2488   1.414       .  A
C2487      S2491   1.801       .  S
C2489      C2490   1.395       .  A
C2489      H2496   1.084       .  S
C2490      S2492   1.803       .  S
S2491      H2494   1.386       .  S
S2492      H2493   1.407       .  S
C2497      C2498   1.405       .  A
C2497      C2502   1.421       .  A
C2498      C2499   1.401       .  A
C2498      H2507   1.084       .  S
C2499      C2500   1.417       .  A
C2499      S2503   1.805       .  S
C2500      C2501   1.404       .  A
C2501      C2502   1.405       .  A
C2501      H2508   1.084       .  S
C2502      S2504   1.804       .  S
S2503      H2506   1.407       .  S
S2504      H2505   1.407       .  S
C2509      C2510   1.403       .  A
C2509      C2514   1.408       .  A
C2510      C2511   1.395       .  A
C2510      H2519   1.078       .  S
C2511      C2512   1.416       .  A
C2511      S2515   1.812       .  S
C2512      C2513   1.413       .  A
C2513      C2514   1.399       .  A
C2513      H2520   1.083       .  S
C2514      S2516   1.804   1_556  S
S2515      H2518   1.407       .  S
S2516      H2517   1.406       .  S
C2521      C2522   1.399       .  A
C2521      C2526   1.407       .  A
C2522      C2523   1.391       .  A
C2522      H2531   1.084       .  S
C2523      C2524   1.413       .  A
C2524      C2525   1.403       .  A
C2525      C2526   1.388       .  A
C2525      H2532   1.084       .  S
C2526      S2528   1.802       .  S
S2527      H2530   1.407       .  S
S2528      H2529   1.406       .  S
C2533      C2534   1.408       .  A
C2533      C2538   1.408       .  A
C2534      C2535   1.405       .  A
C2534      H2543   1.084       .  S
C2535      C2536   1.414       .  A
C2535      S2539   1.802       .  S
C2536      C2537   1.411       .  A
C2537      C2538   1.400       .  A
C2537      H2544   1.084       .  S
C2538      S2540   1.804       .  S
S2539      H2542   1.407       .  S
S2540      H2541   1.403       .  S
C2545      C2546   1.394       .  A
C2545      C2550   1.410       .  A
C2546      C2547   1.391       .  A
C2546      H2555   1.085       .  S
C2547      C2548   1.422       .  A
C2547      S2551   1.797       .  S
C2548      C2549   1.406       .  A
C2549      C2550   1.400       .  A
C2549      H2556   1.084       .  S
S2551      H2554   1.385       .  S
S2552      H2553   1.405       .  S
C2557      C2558   1.415       .  A
C2557      C2562   1.416       .  A
C2558      C2559   1.418       .  A
C2558      H2567   1.083   1_556  S
C2559      C2560   1.416       .  A
C2559      S2563   1.800       .  S
C2560      C2561   1.411       .  A
C2561      C2562   1.407       .  A
C2561      H2568   1.080       .  S
C2562      S2564   1.809       .  S
S2563      H2566   1.401       .  S
S2564      H2565   1.407       .  S
C2569      C2570   1.405       .  A
C2569      C2574   1.419       .  A
C2570      C2571   1.412       .  A
C2570      H2579   1.084       .  S
C2571      C2572   1.418       .  A
C2571      S2575   1.804       .  S
C2572      C2573   1.395       .  A
C2573      C2574   1.395       .  A
C2573      H2580   1.085       .  S
C2574      S2576   1.800       .  S
S2575      H2578   1.404       .  S
S2576      H2577   1.392       .  S
C2581      C2582   1.406       .  A
C2581      C2586   1.414       .  A
C2582      C2583   1.392       .  A
C2582      H2591   1.085       .  S
C2583      C2584   1.412       .  A
C2583      S2587   1.802       .  S
C2584      C2585   1.411       .  A
C2585      C2586   1.418       .  A
C2585      H2592   1.083       .  S
C2586      S2588   1.798       .  S
S2587      H2590   1.406       .  S
S2588      H2589   1.406       .  S
C2593      C2594   1.398       .  A
C2593      C2598   1.415       .  A
C2594      C2595   1.402       .  A
C2594      H2603   1.083       .  S
C2595      C2596   1.418       .  A
C2595      S2599   1.809       .  S
C2596      C2597   1.402       .  A
C2597      C2598   1.400       .  A
C2597      H2604   1.084       .  S
C2598      S2600   1.804       .  S
S2599      H2602   1.407       .  S
S2600      H2601   1.404       .  S
C2605      C2606   1.411       .  A
C2605      C2610   1.423       .  A
C2606      C2607   1.397       .  A
C2606      H2615   1.083       .  S
C2607      C2608   1.406       .  A
C2608      C2609   1.394       .  A
C2609      C2610   1.387       .  A
C2609      H2616   1.085       .  S
C2610      S2612   1.805       .  S
S2611      H2614   1.405       .  S
S2612      H2613   1.405       .  S
C2617      C2618   1.395       .  A
C2617      C2622   1.420       .  A
C2618      C2619   1.393       .  A
C2618      H2627   1.084       .  S
C2619      C2620   1.415       .  A
C2619      S2623   1.794       .  S
C2620      C2621   1.399       .  A
C2621      C2622   1.403       .  A
C2621      H2628   1.084       .  S
C2622      S2624   1.804       .  S
S2623      H2626   1.403       .  S
S2624      H2625   1.406       .  S
C2629      C2630   1.406       .  A
C2629      C2634   1.430       .  A
C2630      C2631   1.399       .  A
C2630      H2639   1.083       .  S
C2631      C2632   1.412       .  A
C2631      S2635   1.805       .  S
C2632      C2633   1.393       .  A
C2633      C2634   1.395       .  A
C2633      H2640   1.084       .  S
C2634      S2636   1.804       .  S
S2635      H2638   1.404       .  S
S2636      H2637   1.406       .  S
