geometry optimzed in LAMMPS
_audit_creation_date              2020-11-30 
_audit_creation_method            'lammps2cif' 
_symmetry_space_group_name_H-M    'P1' 
_symmetry_Int_Tables_number       1 
_symmetry_cell_setting            triclinic 
loop_ 
_symmetry_equiv_pos_as_xyz 
  x,y,z 
_cell_length_a                    43.27068401 
_cell_length_b                    42.99158086692707 
_cell_length_c                    40.22935075033274 
_cell_angle_alpha                 90.56517793731904 
_cell_angle_beta                  90.18298964838107 
_cell_angle_gamma                 121.14711863067079 
loop_ 
_atom_site_label 
_atom_site_type_symbol 
_atom_site_fract_x 
_atom_site_fract_y 
_atom_site_fract_z 
_atom_site_charge 
O1          O  0.12144577  0.29971480  0.03692688    -0.84200
O2          O  0.13057813  0.36608618  0.01914093    -0.81300
C3          C  0.15469363  0.39002309  0.03817759     0.99200
O4          O  0.18731306  0.39900149  0.03487259    -0.81300
O5          O  0.24483264  0.39003998  0.02033808    -0.84000
C6          C  0.24380156  0.36654840  0.03966171     1.03700
O7          O  0.21822851  0.33363123  0.03731793    -0.76700
O8          O  0.15062530  0.27331315  0.02077864    -0.76900
C9          C  0.12839865  0.27474215  0.04014620     1.03700
O10         O  0.11511091  0.27929315  0.96807641    -0.84200
O11         O  0.13041483  0.34707608  0.95036760    -0.81300
C12         C  0.14918353  0.38082185  0.94571236     0.99200
O13         O  0.17483020  0.40101179  0.96537283    -0.81300
O14         O  0.22865925  0.38662164  0.95082650    -0.83900
C15         C  0.24478135  0.36915370  0.94993837     1.03700
O16         O  0.23631358  0.34346851  0.96968387    -0.76800
O17         O  0.16732701  0.28902144  0.95132666    -0.76900
C18         C  0.13345583  0.27308515  0.94757386     1.03700
Cr19       Cr  0.12822816  0.32461436  0.99373200     1.93700
Cr20       Cr  0.20629326  0.39021967  0.99295172     1.93200
Cr21       Cr  0.19165046  0.31214432  0.99474290     1.39100
O22         O  0.17546119  0.34244255  0.99407242    -1.22000
O23         O  0.34527382  0.20886250  0.95290181    -0.84200
O24         O  0.27349713  0.16130293  0.96898304    -0.81300
C25         C  0.26425626  0.13445521  0.94977133     0.99200
O26         O  0.27653843  0.11385823  0.95431607    -0.81300
O27         O  0.32292227  0.09134869  0.97418129    -0.84000
C28         C  0.35029150  0.10730862  0.95565412     1.03700
O29         O  0.37174690  0.14132035  0.95878839    -0.76700
O30         O  0.39509824  0.21435454  0.97263729    -0.76900
C31         C  0.37926533  0.22405186  0.95228823     1.03700
O32         O  0.36163825  0.22875290  0.02104520    -0.84200
O33         O  0.29211105  0.17651505  0.03768806    -0.81300
C34         C  0.26474645  0.14531025  0.04174620     0.99200
O35         O  0.25984873  0.11886536  0.02340894    -0.81300
O36         O  0.31055190  0.10152046  0.04252756    -0.83900
C37         C  0.34115345  0.10508123  0.04677248     1.03700
O38         O  0.36736992  0.12668486  0.02865501    -0.76800
O39         O  0.38423066  0.19800856  0.04248389    -0.76900
C40         C  0.38092043  0.22561635  0.04276014     1.03700
Cr41       Cr  0.31899076  0.19094118  0.99533801     1.93700
Cr42       Cr  0.29520755  0.11019418  0.99856156     1.93200
Cr43       Cr  0.37601122  0.16906490  0.00049447     1.39100
O44         O  0.33009774  0.15665551  0.99827524    -1.22000
C45         C  0.47685082  0.01843730  0.25781383     0.03400
C46         C  0.46186601  0.46803019  0.25750356     0.03400
C47         C  0.98974732  0.46157885  0.25647625     0.03400
C48         C  0.03087138  0.99613924  0.25542894     0.03400
C49         C  0.04056576  0.03447792  0.25684415     0.03400
C50         C  0.01221324  0.04383783  0.25747701     0.03400
N51         N  0.44794267  0.02826991  0.25985425    -0.02400
C52         C  0.44811644  0.05509294  0.24029836     0.00200
C53         C  0.44371519  0.07902542  0.25977757    -0.22700
C54         C  0.43243402  0.55686589  0.28554706    -0.22900
C55         C  0.43540005  0.52666715  0.28740809     0.00100
H56         H  0.43648522  0.09832443  0.25164846     0.13900
H57         H  0.42157505  0.56665599  0.30442231     0.13900
N58         N  0.05552201  0.48224121  0.24841381    -0.02400
C59         C  0.05218630  0.45915462  0.22272333     0.00200
C60         C  0.05525755  0.43108728  0.23501423    -0.22700
C61         C  0.06899095  0.94376408  0.27038799    -0.22900
C62         C  0.06939147  0.97496534  0.27905441     0.00100
H63         H  0.06065411  0.41340436  0.22019066     0.13900
H64         H  0.08162836  0.93178327  0.28431275     0.13900
N65         N  0.07953023  0.06379304  0.25558174    -0.02400
C66         C  0.10051408  0.06345118  0.22994271     0.00200
C67         C  0.13004447  0.06323293  0.24279497    -0.22700
C68         C  0.13157544  0.07085639  0.27570851    -0.22900
C69         C  0.10206117  0.07340585  0.28325186     0.00100
H70         H  0.15285836  0.06650009  0.22878322     0.13900
H71         H  0.15474201  0.07896496  0.29166280     0.13900
N72         N  0.52669731  0.08737469  0.25319666    -0.02400
C73         C  0.53553104  0.11098160  0.28083057     0.00200
C74         C  0.56443883  0.14460821  0.27423231    -0.22700
C75         C  0.08068361  0.13042438  0.25495747    -0.22900
C76         C  0.05162570  0.10597431  0.23536719     0.00100
H77         H  0.57653113  0.16808599  0.29074878     0.13900
H78         H  0.10604187  0.15247959  0.24591340     0.13900
N79         N  0.42353562  0.43815168  0.26125944    -0.02400
C80         C  0.39679683  0.43768888  0.24212348     0.00200
C81         C  0.36922687  0.43356137  0.26185326    -0.22700
C82         C  0.37567053  0.42575055  0.29269251    -0.22900
C83         C  0.40799514  0.42695404  0.29249930     0.00100
H84         H  0.34392531  0.43040849  0.25354629     0.13900
H85         H  0.35571631  0.41433680  0.31191691     0.13900
N86         N  0.98111417  0.42245397  0.25852018    -0.02400
C87         C  0.97607623  0.40387100  0.28836917     0.00200
C88         C  0.94716297  0.36903883  0.28592203    -0.22700
C89         C  0.43296721  0.36071173  0.25148970    -0.22900
C90         C  0.45594365  0.39227130  0.23536567     0.00100
H91         H  0.93882779  0.34802813  0.30426079     0.13900
H92         H  0.41272732  0.33513360  0.24016762     0.13900
O93         O  0.26543741  0.13403082  0.52828104    -0.84200
O94         O  0.32069433  0.20427763  0.54033622    -0.81300
C95         C  0.35173717  0.23245173  0.54068189     0.99200
O96         O  0.37503509  0.23524226  0.52022762    -0.81300
O97         O  0.38843659  0.18143806  0.54213377    -0.84000
C98         C  0.38357470  0.15004276  0.54625315     1.03700
O99         O  0.36306872  0.12384207  0.52692021    -0.76700
O100        O  0.29318547  0.10492923  0.54091789    -0.76900
C101        C  0.26844522  0.11166886  0.54615147     1.03700
O102        O  0.27686139  0.14609917  0.45800427    -0.84200
O103        O  0.32792187  0.21708635  0.46899316    -0.81300
C104        C  0.35219366  0.22315912  0.44802623     0.99200
O105        O  0.37342062  0.21168688  0.45326256    -0.81300
O106        O  0.39709700  0.16665144  0.47452033    -0.83900
C107        C  0.38066875  0.14031212  0.45435873     1.03700
O108        O  0.34700143  0.11902685  0.45679556    -0.76800
O109        O  0.27606137  0.09637415  0.47119285    -0.76900
C110        C  0.26539902  0.11285965  0.45301378     1.03700
Cr111      Cr  0.30037605  0.17427002  0.49901833     1.93700
Cr112      Cr  0.37968854  0.19595717  0.49775406     1.93200
Cr113      Cr  0.32082350  0.11491114  0.49894033     1.39100
O114        O  0.33334238  0.16145021  0.49868615    -1.22000
O115        O  0.22512825  0.35125693  0.54232532    -0.84200
O116        O  0.16727495  0.28239659  0.52785532    -0.81300
C117        C  0.14006912  0.27663367  0.54466949     0.99200
O118        O  0.12346681  0.29272609  0.53784135    -0.81300
O119        O  0.11426293  0.34880331  0.51998370    -0.84000
C120        C  0.13294631  0.37399202  0.54081804     1.03700
O121        O  0.16692685  0.38925598  0.54128830    -0.76700
O122        O  0.23672201  0.40476962  0.52682103    -0.76900
C123        C  0.24429064  0.38544438  0.54442708     1.03700
O124        O  0.24134355  0.36459347  0.47315035    -0.84200
O125        O  0.18260000  0.29743745  0.45794799    -0.81300
C126        C  0.15006086  0.27304656  0.45309066     0.99200
O127        O  0.12553260  0.27431127  0.46911457    -0.81300
O128        O  0.12433604  0.33685857  0.45214074    -0.83900
C129        C  0.13058765  0.36902029  0.45227595     1.03700
O130        O  0.15382511  0.39241238  0.47223498    -0.76800
O131        O  0.22026082  0.39965852  0.45864079    -0.76900
C132        C  0.24311372  0.38991314  0.45581923     1.03700
Cr133      Cr  0.20162189  0.32544323  0.50014859     1.93700
Cr134      Cr  0.12592897  0.31543345  0.49485001     1.93200
Cr135      Cr  0.19274913  0.39240493  0.49966996     1.39100
O136        O  0.17360867  0.34437609  0.49803382    -1.22000
C137        C  0.46495193  0.98910662  0.75000473     0.03400
C138        C  0.46944620  0.46133319  0.75529012     0.03400
C139        C  0.00832485  0.46980248  0.75474572     0.03400
C140        C  0.03899331  0.00298962  0.75039459     0.03400
C141        C  0.03329313  0.03465702  0.74907525     0.03400
C142        C  0.99632401  0.02785555  0.75004251     0.03400
N143        N  0.07654402  0.51507507  0.75430264    -0.02400
C144        C  0.09633623  0.52428003  0.78379216     0.00200
C145        C  0.13027793  0.55445708  0.77944686    -0.22700
C146        C  0.13549717  0.04650675  0.74022865    -0.22900
C147        C  0.10137983  0.02378352  0.72673923     0.00100
H148        H  0.15229931  0.56585477  0.79741489     0.13900
H149        H  0.16087064  0.05985479  0.72703487     0.13900
N150        N  0.42722546  0.98287585  0.74800078    -0.02400
C151        C  0.40378002  0.97216348  0.77521904     0.00200
C152        C  0.37114918  0.94175405  0.76708532    -0.22700
C153        C  0.37202944  0.42604124  0.76279585    -0.22900
C154        C  0.39619887  0.45170505  0.74140059     0.00100
H155        H  0.34717639  0.92946155  0.78225475     0.13900
H156        H  0.34908850  0.39979664  0.75707978     0.13900
N157        N  0.49269023  0.05847747  0.75029461    -0.02400
C158        C  0.46619128  0.05777814  0.73039728     0.00200
C159        C  0.44072822  0.05906020  0.75003280    -0.22700
C160        C  0.95265902  0.07082409  0.77876892    -0.22900
C161        C  0.98422260  0.07080263  0.78063625     0.00100
H162        H  0.42018988  0.06433879  0.74174906     0.13900
H163        H  0.94318328  0.08279537  0.79683183     0.13900
N164        N  0.06339164  0.07375249  0.74430108    -0.02400
C165        C  0.09872737  0.08989981  0.75622790     0.00200
C166        C  0.12220229  0.10149275  0.72938132    -0.22700
C167        C  0.10299014  0.09498090  0.70146918    -0.22900
C168        C  0.06915377  0.08581766  0.71181697     0.00100
H169        H  0.15131691  0.11472480  0.72949535     0.13900
H170        H  0.11519428  0.10645748  0.67772787     0.13900
N171        N  0.01496744  0.43846500  0.75379656    -0.02400
C172        C  0.03643172  0.43680688  0.72901800     0.00200
C173        C  0.06291981  0.43198787  0.74233847    -0.22700
C174        C  0.55238480  0.42303303  0.77803982    -0.22900
C175        C  0.52229736  0.42512735  0.78449368     0.00100
H176        H  0.08178612  0.42739744  0.72870338     0.13900
H177        H  0.56444214  0.41243718  0.79456335     0.13900
N178        N  0.43975232  0.42275150  0.75612037    -0.02400
C179        C  0.43320511  0.40254251  0.78464400     0.00200
C180        C  0.42960749  0.36951444  0.77665913    -0.22700
C181        C  0.43197825  0.36754865  0.74351457    -0.22900
C182        C  0.43565093  0.39880425  0.73087614     0.00100
H183        H  0.41872500  0.34607473  0.79261075     0.13900
H184        H  0.42295682  0.34243533  0.73000686     0.13900
C185        C  0.09117672  0.17850645  0.68352995    -0.13300
C186        C  0.07963134  0.17021906  0.65042435     0.17100
C187        C  0.05774139  0.13311521  0.64118827     0.03400
C188        C  0.04872465  0.10599272  0.66476263    -0.11800
C189        C  0.06209189  0.11379102  0.69756411    -0.02800
C190        C  0.08427266  0.15144097  0.70668646     0.02700
C191        C  0.09695302  0.19958954  0.62497680     0.09500
N192        N  0.04875059  0.12202072  0.60712345     0.65900
H193        H  0.03565243  0.07829994  0.65576710     0.18800
N194        N  0.10889759  0.16292998  0.73431491     0.76300
H195        H  0.11116893  0.20617530  0.69027310     0.10300
C196        C  0.09557614  0.23192015  0.62594462     0.04000
C197        C  0.10956943  0.25620724  0.59932916    -0.04700
C198        C  0.12682974  0.25047132  0.57250800    -0.23100
C199        C  0.13097758  0.22006379  0.57303042     0.13200
C200        C  0.11647459  0.19538136  0.59918272    -0.12300
N201        N  0.08104644  0.24138532  0.65361101     0.64900
H202        H  0.10762743  0.28035464  0.60003496     0.12800
N203        N  0.14833285  0.21283925  0.54645684     0.61500
H204        H  0.12048509  0.17254700  0.59919824     0.08900
O205        O  0.09826201  0.16364004  0.76319594    -0.39900
O206        O  0.14241288  0.18037507  0.72880526    -0.39100
O207        O  0.06613794  0.11025408  0.59178238    -0.39100
O208        O  0.01794243  0.11339135  0.59632022    -0.36800
O209        O  0.17895602  0.21664388  0.55117298    -0.37700
O210        O  0.13093231  0.19766330  0.52006816    -0.33900
O211        O  0.09972195  0.25341577  0.67990746    -0.35300
O212        O  0.05769440  0.24997131  0.64809082    -0.39600
C213        C  0.03512713  0.38400297  0.65512798    -0.13300
C214        C  0.05731623  0.41274489  0.63493833     0.17100
C215        C  0.05782353  0.44559784  0.63939419     0.03400
C216        C  0.04211033  0.45052956  0.66835387    -0.11800
C217        C  0.02692829  0.42413408  0.69316350    -0.02800
C218        C  0.02012756  0.38904100  0.68377581     0.02700
C219        C  0.07908278  0.40644410  0.61028498     0.09500
N220        N  0.07385965  0.47381798  0.61522806     0.65900
H221        H  0.04401083  0.47587938  0.67284467     0.18800
N222        N  0.99811517  0.35753034  0.70263263     0.76300
H223        H  0.03054934  0.35726117  0.64920602     0.10300
C224        C  0.10512810  0.39805387  0.62107693     0.04000
C225        C  0.12344098  0.38919309  0.59784756    -0.04700
C226        C  0.11471736  0.38603786  0.56403133    -0.23100
C227        C  0.08821758  0.39367472  0.55314529     0.13200
C228        C  0.07113612  0.40443530  0.57625324    -0.12300
N229        N  0.11215912  0.39670419  0.65565862     0.64900
H230        H  0.14329231  0.38285008  0.60649808     0.12800
N231        N  0.07845275  0.39077867  0.51876473     0.61500
H232        H  0.05056819  0.40981608  0.56777291     0.08900
O233        O  0.96464917  0.34486347  0.70119953    -0.39900
O234        O  0.51915900  0.34348984  0.71451600    -0.39100
O235        O  0.10330309  0.48189718  0.60174152    -0.39100
O236        O  0.05779083  0.48989592  0.60625597    -0.36800
O237        O  0.05603392  0.36004755  0.50638782    -0.37700
O238        O  0.08588034  0.41906527  0.50309424    -0.33900
O239        O  0.09207726  0.36793603  0.67140247    -0.35300
O240        O  0.14308606  0.41894273  0.66731557    -0.39600
C241        C  0.33448109  0.42487357  0.66501162    -0.13300
C242        C  0.35858793  0.43850472  0.63886792     0.17100
C243        C  0.39611780  0.45811096  0.64600787     0.03400
C244        C  0.40843429  0.46307747  0.67947897    -0.11800
C245        C  0.38383320  0.44967135  0.70597188    -0.02800
C246        C  0.34596090  0.43141367  0.69787165     0.02700
C247        C  0.34115670  0.43286419  0.60561142     0.09500
N248        N  0.42194463  0.47300070  0.61994506     0.65900
H249        H  0.43397126  0.94751593  0.66859339     0.18800
N250        N  0.31859924  0.42502741  0.72158641     0.76300
H251        H  0.30567565  0.41110275  0.65985840     0.10300
C252        C  0.32734719  0.39883670  0.58959188     0.04000
C253        C  0.29592678  0.38418952  0.57000390    -0.04700
C254        C  0.27762469  0.40285810  0.56542544    -0.23100
C255        C  0.29292907  0.43828915  0.57912385     0.13200
C256        C  0.32451773  0.45298217  0.59882652    -0.12300
N257        N  0.34371440  0.37771471  0.59471565     0.64900
H258        H  0.28558162  0.35769197  0.55845684     0.12800
N259        N  0.27477141  0.45807652  0.57624421     0.61500
H260        H  0.33363888  0.47842597  0.61204724     0.08900
O261        O  0.29671402  0.39279492  0.73025020    -0.39900
O262        O  0.30745275  0.44695923  0.72206064    -0.39100
O263        O  0.44130870  0.94550620  0.59824045    -0.39100
O264        O  0.43194444  0.45335339  0.60592634    -0.36800
O265        O  0.24655531  0.44849589  0.59278231    -0.37700
O266        O  0.28943637  0.48773232  0.56086374    -0.33900
O267        O  0.32435274  0.34461714  0.60212820    -0.35300
O268        O  0.37531307  0.38958458  0.58443357    -0.39600
C269        C  0.45168640  0.07526179  0.64134272    -0.13300
C270        C  0.45413021  0.10898004  0.64473700     0.17100
C271        C  0.46885756  0.12879013  0.67472525     0.03400
C272        C  0.47729737  0.11325688  0.70104982    -0.11800
C273        C  0.47255149  0.07827907  0.69849951    -0.02800
C274        C  0.46303382  0.06094635  0.66679097     0.02700
C275        C  0.43787830  0.12133436  0.61870275     0.09500
N276        N  0.47354011  0.16397052  0.67967039     0.65900
H277        H  0.99026543  0.13057603  0.72055047     0.18800
N278        N  0.46849703  0.03155880  0.65875947     0.76300
H279        H  0.43978525  0.05909948  0.61915134     0.10300
C280        C  0.44437794  0.12118627  0.58403854     0.04000
C281        C  0.42728606  0.13211222  0.56136515    -0.04700
C282        C  0.40386590  0.14344040  0.57187203    -0.23100
C283        C  0.39724016  0.14382694  0.60596362     0.13200
C284        C  0.41382129  0.13247238  0.62892413    -0.12300
N285        N  0.46826795  0.11057378  0.57077818     0.64900
H286        H  0.43198801  0.13120409  0.53499881     0.12800
N287        N  0.37216336  0.15364335  0.61742929     0.61500
H288        H  0.40700351  0.13144869  0.65492418     0.08900
O289        O  0.48093101  0.01991316  0.68035900    -0.39900
O290        O  0.46746352  0.02184279  0.62883390    -0.39100
O291        O  0.94324244  0.16303603  0.67887003    -0.39100
O292        O  0.49699555  0.19052515  0.66324998    -0.36800
O293        O  0.33952021  0.12934696  0.62155176    -0.37700
O294        O  0.38348441  0.18567315  0.62755257    -0.33900
O295        O  0.45553472  0.07756240  0.56321375    -0.35300
O296        O  0.49576658  0.13406290  0.55538310    -0.39600
C297        C  0.19846154  0.08889364  0.61349217    -0.13300
C298        C  0.18399404  0.05140497  0.61752787     0.17100
C299        C  0.19894438  0.03431245  0.59889465     0.03400
C300        C  0.22765483  0.05477755  0.57706051    -0.11800
C301        C  0.24134363  0.09200484  0.57250585    -0.02800
C302        C  0.22669858  0.10913188  0.59134120     0.02700
C303        C  0.15374525  0.03162389  0.64165406     0.09500
N304        N  0.18448301  0.99604849  0.60071534     0.65900
H305        H  0.23816079  0.04106341  0.56239199     0.18800
N306        N  0.24120254  0.14740789  0.58925795     0.76300
H307        H  0.18801984  0.10275014  0.62805261     0.10300
C308        C  0.15508913  0.01148646  0.66877267     0.04000
C309        C  0.12588540  0.99581817  0.69113863    -0.04700
C310        C  0.10159601  0.00853887  0.69303764    -0.23100
C311        C  0.09777370  0.02482222  0.66404317     0.13200
C312        C  0.12374605  0.03579528  0.63876149    -0.12300
N313        N  0.18770462  0.01181289  0.67743101     0.64900
H314        H  0.12820375  0.98229358  0.71273370     0.12800
N315        N  0.07871877  0.54885879  0.66293075     0.61500
H316        H  0.12162827  0.04944288  0.61715560     0.08900
O317        O  0.27076176  0.16908795  0.60365133    -0.39900
O318        O  0.22183855  0.15912873  0.57821172    -0.39100
O319        O  0.15538994  0.97470722  0.58551969    -0.39100
O320        O  0.20485399  0.98461054  0.60945236    -0.36800
O321        O  0.04972937  0.53205306  0.67901284    -0.37700
O322        O  0.08010777  0.56766005  0.63843162    -0.33900
O323        O  0.21819617  0.03856484  0.66995084    -0.35300
O324        O  0.18666850  0.98965995  0.69842979    -0.39600
C325        C  0.39314923  0.32724230  0.57929494    -0.13300
C326        C  0.38517512  0.31943686  0.61314236     0.17100
C327        C  0.36448465  0.28228973  0.62242768     0.03400
C328        C  0.35237327  0.25456932  0.59824086    -0.11800
C329        C  0.36137624  0.26256614  0.56478867    -0.02800
C330        C  0.38188911  0.29934480  0.55533982     0.02700
C331        C  0.39678371  0.34957825  0.63852688     0.09500
N332        N  0.35692045  0.27202281  0.65653925     0.65900
H333        H  0.33754470  0.22650345  0.60599187     0.18800
N334        N  0.39066825  0.30881818  0.52127706     0.76300
H335        H  0.40818679  0.35515730  0.57121989     0.10300
C336        C  0.43223908  0.38033257  0.64131778     0.04000
C337        C  0.44206257  0.40346124  0.66968182    -0.04700
C338        C  0.41895397  0.39423264  0.69704946    -0.23100
C339        C  0.38217098  0.36632774  0.69163623     0.13200
C340        C  0.37154264  0.34628183  0.66191006    -0.12300
N341        N  0.45934949  0.38691457  0.61735957     0.64900
H342        H  0.46942273  0.42581176  0.67233576     0.12800
N343        N  0.35644900  0.35210952  0.71781231     0.61500
H344        H  0.34363973  0.32450903  0.65918677     0.08900
O345        O  0.42274078  0.32184285  0.51169111    -0.39900
O346        O  0.36772558  0.30911760  0.50205357    -0.39100
O347        O  0.32464877  0.25213036  0.66578239    -0.39100
O348        O  0.38236788  0.27847472  0.67625095    -0.36800
O349        O  0.35403802  0.32597033  0.73400172    -0.37700
O350        O  0.32810481  0.35323958  0.71418983    -0.33900
O351        O  0.47977677  0.41857878  0.60659221    -0.35300
O352        O  0.46501747  0.36192068  0.60900384    -0.39600
C353        C  0.09280526  0.42107815  0.40853238    -0.13300
C354        C  0.05974987  0.39241664  0.39637774     0.17100
C355        C  0.04999745  0.35621449  0.40360170     0.03400
C356        C  0.07378369  0.34961239  0.42127883    -0.11800
C357        C  0.10750466  0.37812483  0.43224637    -0.02800
C358        C  0.11654687  0.41433479  0.42651174     0.02700
C359        C  0.04097975  0.39994457  0.36950212     0.09500
N360        N  0.01665192  0.32549211  0.39221061     0.65900
H361        H  0.06565748  0.32166967  0.42626804     0.18800
N362        N  0.15061964  0.44457161  0.43689242     0.76300
H363        H  0.10139046  0.44881640  0.40211964     0.10300
C364        C  0.02139180  0.41762742  0.37375427     0.04000
C365        C  0.00313442  0.42118818  0.34602175    -0.04700
C366        C  0.00322055  0.40726443  0.31428179    -0.23100
C367        C  0.01946727  0.38553650  0.31265057     0.13200
C368        C  0.04120742  0.38610978  0.33841065    -0.12300
N369        N  0.01746061  0.42946940  0.40606713     0.64900
H370        H  0.98794905  0.43413434  0.34923086     0.12800
N371        N  0.01123319  0.35876246  0.28748534     0.61500
H372        H  0.05544540  0.37168692  0.33507304     0.08900
O373        O  0.15193808  0.46546730  0.45983405    -0.39900
O374        O  0.17809672  0.45409499  0.41926924    -0.39100
O375        O  0.01585820  0.31103311  0.36451773    -0.39100
O376        O  0.99315610  0.30648101  0.41347415    -0.36800
O377        O  0.03746523  0.35970261  0.27287982    -0.37700
O378        O  0.98354746  0.32790108  0.29198478    -0.33900
O379        O  0.04488792  0.45171396  0.42293926    -0.35300
O380        O  0.98639156  0.41860300  0.41741663    -0.39600
C381        C  0.40591903  0.36408332  0.36162558    -0.13300
C382        C  0.38385018  0.32985909  0.34711369     0.17100
C383        C  0.36904060  0.32768533  0.31546567     0.10200
C384        C  0.37921441  0.35979546  0.29813550    -0.11800
C385        C  0.40375281  0.39475377  0.31141584    -0.02800
C386        C  0.41347150  0.39601222  0.34545871     0.02700
C387        C  0.37315411  0.29753384  0.36792139     0.09500
N388        N  0.34454842  0.29329783  0.30021572     0.65900
H389        H  0.36845514  0.35755462  0.27366774     0.18800
N390        N  0.42156935  0.42593505  0.36679311     0.76300
H391        H  0.41409049  0.36584766  0.38742512     0.10300
C392        C  0.39795455  0.28678787  0.37604476     0.04000
C393        C  0.38982756  0.26112404  0.40090469    -0.04700
C394        C  0.35721519  0.24582549  0.41833208    -0.23100
C395        C  0.33107606  0.25434846  0.40811516     0.13200
C396        C  0.33943749  0.28035164  0.38340967    -0.12300
N397        N  0.43209736  0.30258638  0.36005116     0.64900
H398        H  0.41003679  0.25455080  0.40766233     0.12800
N399        N  0.29569114  0.23629767  0.42197116     0.61500
H400        H  0.31984494  0.28785579  0.37687514     0.08900
O401        O  0.39670126  0.42135391  0.38611147    -0.39900
O402        O  0.45355331  0.44591666  0.37707999    -0.39100
O403        O  0.31247501  0.28476133  0.29398763    -0.39100
O404        O  0.35640039  0.27429685  0.28817580    -0.36800
O405        O  0.28416783  0.25445009  0.43644979    -0.37700
O406        O  0.27407344  0.20322553  0.41497881    -0.33900
O407        O  0.45551536  0.33543875  0.36577436    -0.35300
O408        O  0.44139861  0.28224411  0.34624447    -0.39600
C409        C  0.47940512  0.14456054  0.32610801    -0.13300
C410        C  0.47413673  0.12883572  0.35729432     0.17100
C411        C  0.49195310  0.10976104  0.36457381     0.03400
C412        C  0.50841716  0.10109103  0.33842694    -0.11800
C413        C  0.51165440  0.11473316  0.30610600    -0.02800
C414        C  0.50058460  0.14088988  0.30200019     0.02700
C415        C  0.44932281  0.13190447  0.38137755     0.09500
N416        N  0.49644201  0.10227451  0.39856636     0.65900
H417        H  0.52084258  0.08561045  0.34390977     0.18800
N418        N  0.51065278  0.16470496  0.27409607     0.76300
H419        H  0.46727361  0.16040124  0.32019594     0.10300
C420        C  0.45157490  0.16538776  0.38848372     0.04000
C421        C  0.42834290  0.16690874  0.41172294    -0.04700
C422        C  0.40206332  0.13572806  0.42804825    -0.23100
C423        C  0.39865649  0.10203835  0.42018558     0.13200
C424        C  0.42207121  0.10037031  0.39696053    -0.12300
N425        N  0.47763472  0.19840788  0.37293411     0.64900
H426        H  0.43111255  0.19297581  0.41728266     0.12800
N427        N  0.37318280  0.06975030  0.43702201     0.61500
H428        H  0.41935921  0.07432591  0.39146538     0.08900
O429        O  0.48583270  0.16426681  0.25727561    -0.39900
O430        O  0.54065652  0.19423880  0.27538027    -0.39100
O431        O  0.50706036  0.08065921  0.40492348    -0.39100
O432        O  0.49622814  0.12192833  0.42198797    -0.36800
O433        O  0.38091221  0.06341313  0.46545546    -0.37700
O434        O  0.34624768  0.04490055  0.42134528    -0.33900
O435        O  0.46710418  0.21272571  0.35200683    -0.35300
O436        O  0.50857090  0.21742867  0.38591642    -0.39600
C437        C  0.14218687  0.16289378  0.33466833    -0.13300
C438        C  0.12029642  0.15233697  0.36273785     0.17100
C439        C  0.09257153  0.11514415  0.36527213     0.03400
C440        C  0.08580083  0.09096950  0.33803918    -0.11800
C441        C  0.10818851  0.10130282  0.31002575    -0.02800
C442        C  0.13796114  0.13819572  0.30938028     0.02700
C443        C  0.12702715  0.18146625  0.38789731     0.09500
N444        N  0.07343866  0.10060626  0.39595445     0.65900
H445        H  0.06314312  0.06363590  0.33896670     0.18800
N446        N  0.16329618  0.15251326  0.28262082     0.76300
H447        H  0.16337235  0.19111626  0.33234650     0.10300
C448        C  0.16128847  0.20360431  0.40317658     0.04000
C449        C  0.16797072  0.23307002  0.42379315    -0.04700
C450        C  0.14131315  0.24178174  0.42990146    -0.23100
C451        C  0.10694309  0.21956008  0.41481081     0.13200
C452        C  0.10005679  0.18971600  0.39428618    -0.12300
N453        N  0.18951285  0.19600620  0.39888305     0.64900
H454        H  0.19436962  0.24907601  0.43542785     0.12800
N455        N  0.07950872  0.22836816  0.41823682     0.61500
H456        H  0.07388757  0.17372161  0.38221534     0.08900
O457        O  0.18700415  0.14392552  0.28012416    -0.39900
O458        O  0.16961035  0.18173212  0.26936727    -0.39100
O459        O  0.04884986  0.06754323  0.39736129    -0.39100
O460        O  0.08511202  0.11831868  0.42290945    -0.36800
O461        O  0.08275174  0.25575978  0.40367875    -0.37700
O462        O  0.05055259  0.20694833  0.43297707    -0.33900
O463        O  0.21412237  0.21415237  0.37822150    -0.35300
O464        O  0.19523281  0.17945396  0.42152947    -0.39600
C465        C  0.20389501  0.04107337  0.38846504    -0.13300
C466        C  0.18522911  0.05696874  0.37546058     0.17100
C467        C  0.19421663  0.09158900  0.38721619     0.03400
C468        C  0.22015310  0.10904354  0.41231226    -0.11800
C469        C  0.23835259  0.09301827  0.42603959    -0.02800
C470        C  0.23028986  0.05872696  0.41345623     0.02700
C471        C  0.15558897  0.03671715  0.35068149     0.09500
N472        N  0.17735310  0.10965624  0.37376006     0.65900
H473        H  0.22562456  0.13520108  0.42136729     0.18800
N474        N  0.24868796  0.04148778  0.42557984     0.76300
H475        H  0.19749160  0.01450675  0.37962121     0.10300
C476        C  0.16154879  0.02410153  0.32052445     0.04000
C477        C  0.13309998  0.00514759  0.29794414    -0.04700
C478        C  0.09798259  0.99845313  0.30408509    -0.23100
C479        C  0.09152526  0.00998577  0.33518789     0.13200
C480        C  0.12061999  0.02912002  0.35781689    -0.12300
N481        N  0.19671018  0.03155506  0.31177925     0.64900
H482        H  0.13873771  0.99579231  0.27497883     0.12800
N483        N  0.05518375  0.49865025  0.34158306     0.61500
H484        H  0.11597345  0.03797569  0.38157089     0.08900
O485        O  0.23717597  0.02190576  0.45103183    -0.39900
O486        O  0.27324215  0.04183961  0.40845326    -0.39100
O487        O  0.15283025  0.11003308  0.39021863    -0.39100
O488        O  0.19339922  0.13292698  0.35147260    -0.36800
O489        O  0.03122801  0.49281161  0.32043223    -0.37700
O490        O  0.04919160  0.50175362  0.37175536    -0.33900
O491        O  0.20349691  0.00633816  0.31252746    -0.35300
O492        O  0.21802596  0.06065122  0.29703239    -0.39600
C493        C  0.39372840  0.48193768  0.36892518    -0.13300
C494        C  0.35689614  0.46663418  0.36164132     0.17100
C495        C  0.34644701  0.47201606  0.33026625     0.03400
C496        C  0.37257104  0.49017058  0.30612839    -0.11800
C497        C  0.40919195  0.50116382  0.31168093    -0.02800
C498        C  0.41993651  0.49738069  0.34381066     0.02700
C499        C  0.32946390  0.44586789  0.38707497     0.09500
N500        N  0.30966314  0.46062915  0.32305052     0.65900
H501        H  0.36429836  0.49559414  0.28247105     0.18800
N502        N  0.44831710  0.01547948  0.35776862     0.76300
H503        H  0.40179794  0.48032586  0.39404377     0.10300
C504        C  0.30631532  0.40766371  0.38484364     0.04000
C505        C  0.27859551  0.38973745  0.40787279    -0.04700
C506        C  0.27335283  0.40925487  0.43291716    -0.23100
C507        C  0.29747177  0.44700473  0.43615530     0.13200
C508        C  0.32529550  0.46498612  0.41324842    -0.12300
N509        N  0.31053608  0.38651606  0.35967131     0.64900
H510        H  0.26064486  0.36052961  0.40579108     0.12800
N511        N  0.29507082  0.46702607  0.46353010     0.61500
H512        H  0.34376540  0.49398098  0.41582166     0.08900
O513        O  0.45285237  0.01718789  0.38888199    -0.39900
O514        O  0.47417332  0.02136496  0.33915521    -0.39100
O515        O  0.29541016  0.47637437  0.33727540    -0.39100
O516        O  0.29349785  0.43926749  0.29887064    -0.36800
O517        O  0.30724335  0.46555247  0.49163079    -0.37700
O518        O  0.28723521  0.49101696  0.45835072    -0.33900
O519        O  0.32475042  0.36827505  0.36740750    -0.35300
O520        O  0.29099516  0.37757832  0.33385683    -0.39600
C521        C  0.36778698  0.02493243  0.82469210    -0.13300
C522        C  0.38061030  0.02601431  0.85664393     0.17100
C523        C  0.40059201  0.00888534  0.86201304     0.03400
C524        C  0.41197283  0.99692271  0.83420083    -0.11800
C525        C  0.39945289  0.99551516  0.80166125    -0.02800
C526        C  0.37439257  0.00774940  0.79819185     0.02700
C527        C  0.37371128  0.04665505  0.88286909     0.09500
N528        N  0.40836593  0.00212573  0.89512224     0.65900
H529        H  0.42026252  0.48396138  0.85441547     0.18800
N530        N  0.35256431  0.00075504  0.76929637     0.76300
H531        H  0.35021571  0.03560270  0.82068839     0.10300
C532        C  0.38945792  0.08470846  0.88074559     0.04000
C533        C  0.38194022  0.10382187  0.90475493    -0.04700
C534        C  0.35748351  0.08570640  0.93060900    -0.23100
C535        C  0.34007253  0.04719797  0.93153682     0.13200
C536        C  0.34815065  0.02828001  0.90774451    -0.12300
N537        N  0.41157713  0.10409475  0.85315930     0.64900
H538        H  0.39470463  0.13302293  0.90256190     0.12800
N539        N  0.31384713  0.02660212  0.95622880     0.61500
H540        H  0.33345701  0.99886983  0.90822307     0.08900
O541        O  0.35248795  0.02742291  0.75651288    -0.39900
O542        O  0.32402883  0.96995612  0.76681817    -0.39100
O543        O  0.37404406  0.47348005  0.91460341    -0.39100
O544        O  0.43743140  0.00303344  0.90125890    -0.36800
O545        O  0.32219171  0.01311972  0.97980345    -0.37700
O546        O  0.28098349  0.01530959  0.95051222    -0.33900
O547        O  0.39768673  0.11045270  0.82848280    -0.35300
O548        O  0.44545212  0.11996442  0.85578583    -0.39600
C549        C  0.37917455  0.05556159  0.09442932    -0.13300
C550        C  0.36288888  0.05051434  0.12569026     0.17100
C551        C  0.33565096  0.05926335  0.12921724     0.03400
C552        C  0.32694660  0.07437085  0.10235953    -0.11800
C553        C  0.34658288  0.08345814  0.07259769    -0.02800
C554        C  0.37231943  0.07285278  0.06856649     0.02700
C555        C  0.38331779  0.04801324  0.15470451     0.09500
N556        N  0.31904086  0.05652585  0.16055945     0.65900
H557        H  0.30691912  0.08202238  0.10592227     0.18800
N558        N  0.39358154  0.08148211  0.03918248     0.76300
H559        H  0.40055350  0.04973510  0.09123668     0.10300
C560        C  0.37081593  0.01901600  0.17737322     0.04000
C561        C  0.39465696  0.01963017  0.20204154    -0.04700
C562        C  0.42973851  0.05013454  0.20703286    -0.23100
C563        C  0.43958376  0.08089541  0.18641425     0.13200
C564        C  0.41804332  0.07779945  0.15930234    -0.12300
N565        N  0.33358656  0.99090939  0.17825701     0.64900
H566        H  0.37606025  0.48789845  0.21590972     0.12800
N567        N  0.46601151  0.11744655  0.19623214     0.61500
H568        H  0.42721615  0.10121324  0.14344994     0.08900
O569        O  0.38714812  0.05656128  0.01849386    -0.39900
O570        O  0.42337412  0.11117924  0.03801711    -0.39100
O571        O  0.33728891  0.07821731  0.18392052    -0.39100
O572        O  0.28506809  0.03790515  0.16267883    -0.36800
O573        O  0.49904876  0.12807448  0.19708463    -0.37700
O574        O  0.45682002  0.14095462  0.19724243    -0.33900
O575        O  0.31737599  0.45237887  0.16157695    -0.35300
O576        O  0.31224980  0.99644378  0.19500085    -0.39600
C577        C  0.12701614  0.09228594  0.84787516    -0.13300
C578        C  0.16407305  0.11642755  0.84507502     0.17100
C579        C  0.17665522  0.13860491  0.81718428     0.03400
C580        C  0.15269944  0.13340645  0.79137509    -0.11800
C581        C  0.11595954  0.10445485  0.79095186    -0.02800
C582        C  0.10261925  0.08803533  0.82235880     0.02700
C583        C  0.18891243  0.11964232  0.87223185     0.09500
N584        N  0.21393380  0.16603245  0.81424751     0.65900
H585        H  0.16413049  0.15149885  0.77063507     0.18800
N586        N  0.06592463  0.07280964  0.83148333     0.76300
H587        H  0.11679299  0.07721046  0.87065451     0.10300
C588        C  0.18533079  0.12984691  0.90471113     0.04000
C589        C  0.20966480  0.13358694  0.92963718    -0.04700
C590        C  0.23768691  0.12706177  0.92300447    -0.23100
C591        C  0.24064692  0.11572162  0.89076192     0.13200
C592        C  0.21631780  0.11213705  0.86567220    -0.12300
N593        N  0.15785498  0.13773269  0.91248516     0.64900
H594        H  0.20691586  0.14216644  0.95432166     0.12800
N595        N  0.26938818  0.10985724  0.88265962     0.61500
H596        H  0.21904804  0.10384132  0.84086401     0.08900
O597        O  0.05767206  0.07246219  0.86163462    -0.39900
O598        O  0.04163965  0.06093075  0.80974525    -0.39100
O599        O  0.23383078  0.16092248  0.79488945    -0.39100
O600        O  0.22533044  0.19727855  0.82652348    -0.36800
O601        O  0.29921030  0.13610311  0.87307786    -0.37700
O602        O  0.26332404  0.07787723  0.88033994    -0.33900
O603        O  0.13150189  0.11612368  0.93017875    -0.35300
O604        O  0.16252404  0.16847547  0.90577019    -0.39600
C605        C  0.45475677  0.31245913  0.91421952    -0.13300
C606        C  0.43712953  0.31560031  0.88627447     0.17100
C607        C  0.40095039  0.28822112  0.87992450     0.03400
C608        C  0.38303917  0.25848445  0.90118554    -0.11800
C609        C  0.40050860  0.25491501  0.92911845    -0.02800
C610        C  0.43695967  0.28251329  0.93552730     0.02700
C611        C  0.45787941  0.34426830  0.86116719     0.09500
N612        N  0.38171954  0.29085288  0.85227182     0.65900
H613        H  0.35508819  0.23813636  0.89583595     0.18800
N614        N  0.45623316  0.28098874  0.96377468     0.76300
H615        H  0.48281198  0.33288055  0.91903678     0.10300
C616        C  0.47317990  0.38167204  0.86723321     0.04000
C617        C  0.49193157  0.40664572  0.84165293    -0.04700
C618        C  0.49766892  0.39644601  0.80995273    -0.23100
C619        C  0.48574726  0.35850480  0.80643107     0.13200
C620        C  0.46486135  0.33345070  0.83095500    -0.12300
N621        N  0.47129068  0.39481896  0.89953137     0.64900
H622        H  0.50267092  0.43461647  0.84761157     0.12800
N623        N  0.49494727  0.34385546  0.77900440     0.61500
H624        H  0.45537285  0.30487098  0.82691307     0.08900
O625        O  0.46342521  0.30281057  0.98783539    -0.39900
O626        O  0.47200760  0.26323752  0.96182801    -0.39100
O627        O  0.37208568  0.26839056  0.82839297    -0.39100
O628        O  0.36950027  0.31179930  0.85422653    -0.36800
O629        O  0.46935725  0.31646474  0.76432078    -0.37700
O630        O  0.52533641  0.34641312  0.78001527    -0.33900
O631        O  0.49994931  0.41774254  0.91456728    -0.35300
O632        O  0.44125658  0.38281575  0.91358156    -0.39600
C633        C  0.12252727  0.08375439  0.13994379    -0.13300
C634        C  0.15713386  0.11468401  0.14387118     0.17100
C635        C  0.16477685  0.13492817  0.17375256     0.03400
C636        C  0.14022600  0.12096130  0.20007628    -0.11800
C637        C  0.10948916  0.08569848  0.19871421    -0.02800
C638        C  0.09888520  0.06887035  0.16702513     0.02700
C639        C  0.18502754  0.12332634  0.11763734     0.09500
N640        N  0.19899697  0.16728363  0.17952468     0.65900
H641        H  0.14846604  0.13503208  0.22351858     0.18800
N642        N  0.06430865  0.03688087  0.16209495     0.76300
H643        H  0.11484151  0.06987785  0.11604728     0.10300
C644        C  0.18980849  0.09561882  0.10404745     0.04000
C645        C  0.21520071  0.10344437  0.07913836    -0.04700
C646        C  0.23766057  0.13895920  0.06779442    -0.23100
C647        C  0.23353681  0.16700713  0.08167229     0.13200
C648        C  0.20705485  0.15889936  0.10588833    -0.12300
N649        N  0.17071100  0.05963782  0.11684885     0.64900
H650        H  0.21825866  0.08154795  0.06952776     0.12800
N651        N  0.25544621  0.20374014  0.07108778     0.61500
H652        H  0.20376304  0.18062721  0.11540484     0.08900
O653        O  0.05371454  0.02331058  0.13333034    -0.39900
O654        O  0.04197605  0.02596121  0.18542268    -0.39100
O655        O  0.20046058  0.19699478  0.18486924    -0.39100
O656        O  0.22625609  0.16488871  0.18590672    -0.36800
O657        O  0.24317206  0.21612179  0.04987907    -0.37700
O658        O  0.28377789  0.22534733  0.08723228    -0.33900
O659        O  0.14978786  0.03322225  0.09811604    -0.35300
O660        O  0.17868216  0.05379882  0.14534929    -0.39600
C661        C  0.47445642  0.35049903  0.15847182    -0.13300
C662        C  0.44644992  0.34558077  0.13794579     0.17100
C663        C  0.42734510  0.36254523  0.14709913     0.03400
C664        C  0.43589636  0.38300073  0.17674416    -0.11800
C665        C  0.46104265  0.38452518  0.19979719    -0.02800
C666        C  0.47881455  0.36533304  0.19055471     0.02700
C667        C  0.43212205  0.31553028  0.11263329     0.09500
N668        N  0.39432736  0.35257619  0.13086783     0.65900
H669        H  0.41895995  0.39318772  0.18400809     0.18800
N670        N  0.99023016  0.35036560  0.21646155     0.76300
H671        H  0.48727015  0.33515082  0.15264417     0.10300
C672        C  0.42927868  0.32138191  0.07867939     0.04000
C673        C  0.41262172  0.29159254  0.05656258    -0.04700
C674        C  0.40030455  0.25594353  0.06715263    -0.23100
C675        C  0.40476212  0.25030055  0.10079592     0.13200
C676        C  0.42010831  0.27989043  0.12323713    -0.12300
N677        N  0.44465051  0.35739730  0.06604514     0.64900
H678        H  0.40999322  0.29645673  0.03061713     0.12800
N679        N  0.39199910  0.21454933  0.11288653     0.61500
H680        H  0.42208199  0.27493069  0.14930187     0.08900
O681        O  0.96564078  0.32274013  0.23088157    -0.39900
O682        O  0.01905442  0.35080937  0.21034585    -0.39100
O683        O  0.36526075  0.32951363  0.14447190    -0.39100
O684        O  0.39394503  0.37160749  0.10741714    -0.36800
O685        O  0.36030399  0.19589398  0.12386669    -0.37700
O686        O  0.41363115  0.20335894  0.11623371    -0.33900
O687        O  0.47789073  0.38000624  0.07037845    -0.35300
O688        O  0.42689056  0.36458035  0.04583789    -0.39600
C689        C  0.11015507  0.21636971  0.86669254    -0.13300
C690        C  0.07243416  0.19433855  0.86919495     0.17100
C691        C  0.05547880  0.19860495  0.89732381     0.03400
C692        C  0.07602852  0.22394690  0.92221215    -0.11800
C693        C  0.11381154  0.24602765  0.92012367    -0.02800
C694        C  0.13087239  0.24214541  0.89172488     0.02700
C695        C  0.05143339  0.16395301  0.84483702     0.09500
N696        N  0.01711645  0.17777769  0.90077931     0.65900
H697        H  0.06194539  0.22626922  0.94342642     0.18800
N698        N  0.16896940  0.26455713  0.88747354     0.76300
H699        H  0.12364541  0.21311515  0.84547010     0.10300
C700        C  0.04841951  0.16847200  0.81032552     0.04000
C701        C  0.03014837  0.13707940  0.78942282    -0.04700
C702        C  0.01144366  0.10168426  0.80233808    -0.23100
C703        C  0.01022515  0.09884265  0.83743029     0.13200
C704        C  0.03264486  0.12898615  0.85750319    -0.12300
N705        N  0.06087728  0.20388862  0.79657880     0.64900
H706        H  0.02817326  0.14032450  0.76308024     0.12800
N707        N  0.98477767  0.06637241  0.85382686     0.61500
H708        H  0.03371505  0.12512261  0.88397493     0.08900
O709        O  0.18139042  0.29314722  0.87069654    -0.39900
O710        O  0.18908858  0.25228588  0.89445775    -0.39100
O711        O  0.00332010  0.15329566  0.92242101    -0.39100
O712        O  0.99837929  0.18953414  0.88830075    -0.36800
O713        O  0.98499722  0.03755319  0.84877741    -0.37700
O714        O  0.96931002  0.06902306  0.87930576    -0.33900
O715        O  0.06248716  0.20800538  0.76546832    -0.35300
O716        O  0.06462470  0.22965667  0.81490414    -0.39600
C717        C  0.06602602  0.21456418  0.10938797    -0.13300
C718        C  0.08061135  0.19267786  0.11622608     0.17100
C719        C  0.10963105  0.19689265  0.09707389     0.03400
C720        C  0.12390166  0.22295791  0.07201050    -0.11800
C721        C  0.11053602  0.24616137  0.06597829    -0.02800
C722        C  0.08084856  0.24134430  0.08483479     0.02700
C723        C  0.06813606  0.16856176  0.14569023     0.09500
N724        N  0.12694979  0.17712928  0.10478374     0.65900
H725        H  0.14678452  0.22607809  0.05821797     0.18800
N726        N  0.06556414  0.26349396  0.07967742     0.76300
H727        H  0.04357508  0.21150761  0.12388889     0.10300
C728        C  0.07149710  0.18360332  0.17736420     0.04000
C729        C  0.06306277  0.16182721  0.20506679    -0.04700
C730        C  0.05005934  0.12396504  0.20324992    -0.23100
C731        C  0.04162505  0.10781088  0.17083224     0.13200
C732        C  0.05299924  0.13073031  0.14256661    -0.12300
N733        N  0.08583749  0.22171080  0.18213850     0.64900
H734        H  0.06902025  0.17574551  0.22861984     0.12800
N735        N  0.49759190  0.06305361  0.16593230     0.61500
H736        H  0.04824505  0.11896480  0.11779691     0.08900
O737        O  0.03936632  0.25297139  0.05970139    -0.39900
O738        O  0.07427082  0.29029167  0.09879663    -0.39100
O739        O  0.12775863  0.15583972  0.08347168    -0.39100
O740        O  0.14495453  0.18413400  0.13141494    -0.36800
O741        O  0.47663856  0.05367581  0.14107410    -0.37700
O742        O  0.49106314  0.03980664  0.18784564    -0.33900
O743        O  0.06527896  0.23275211  0.19146151    -0.35300
O744        O  0.11958253  0.24333873  0.18271971    -0.39600
C745        C  0.09344259  0.46577070  0.85639733    -0.13300
C746        C  0.11832013  0.45636466  0.84612021     0.17100
C747        C  0.13493435  0.46786104  0.81513938     0.03400
C748        C  0.12647107  0.48879971  0.79507883    -0.11800
C749        C  0.10033803  0.49759963  0.80453472    -0.02800
C750        C  0.08446200  0.48628262  0.83607889     0.02700
C751        C  0.12749522  0.43579944  0.86899238     0.09500
N752        N  0.15899286  0.45696211  0.80302648     0.65900
H753        H  0.14032980  0.49810861  0.77175807     0.18800
N754        N  0.05761540  0.49353091  0.84683620     0.76300
H755        H  0.08072967  0.45671992  0.88038863     0.10300
C756        C  0.16138491  0.45249378  0.88500445     0.04000
C757        C  0.16819687  0.43331736  0.90876206    -0.04700
C758        C  0.14135554  0.39793716  0.91778002    -0.23100
C759        C  0.10766855  0.38091576  0.90093787     0.13200
C760        C  0.10110520  0.39997005  0.87666223    -0.12300
N761        N  0.18817951  0.48970772  0.87915981     0.64900
H762        H  0.19430686  0.44688334  0.92117182     0.12800
N763        N  0.07920127  0.34526026  0.90938934     0.61500
H764        H  0.07486933  0.38720874  0.86449322     0.08900
O765        O  0.05000324  0.49208352  0.87729264    -0.39900
O766        O  0.03581165  0.49225425  0.82541591    -0.39100
O767        O  0.14665584  0.42414165  0.79492873    -0.39100
O768        O  0.19066362  0.48071204  0.79479804    -0.36800
O769        O  0.05912965  0.34114845  0.93370305    -0.37700
O770        O  0.07051680  0.31898644  0.88959842    -0.33900
O771        O  0.18343811  0.51456615  0.89002065    -0.35300
O772        O  0.21893999  0.49778745  0.86884450    -0.39600
C773        C  0.39324586  0.41281421  0.86675863    -0.13300
C774        C  0.35675716  0.38649213  0.86170081     0.17100
C775        C  0.34631710  0.36473499  0.83291423     0.03400
C776        C  0.37203822  0.37069544  0.80920782    -0.11800
C777        C  0.40840797  0.39937667  0.81215991    -0.02800
C778        C  0.41914086  0.42020381  0.84210999     0.02700
C779        C  0.32943846  0.38457782  0.88484995     0.09500
N780        N  0.30948892  0.33701581  0.82693470     0.65900
H781        H  0.36295597  0.35345501  0.78745477     0.18800
N782        N  0.45455797  0.45120036  0.84676038     0.76300
H783        H  0.40108117  0.42983499  0.88890692     0.10300
C784        C  0.33008359  0.37688811  0.91858052     0.04000
C785        C  0.30315729  0.37400996  0.93954234    -0.04700
C786        C  0.27529563  0.37876171  0.92755699    -0.23100
C787        C  0.27576851  0.38851704  0.89417209     0.13200
C788        C  0.30273944  0.39119950  0.87306201    -0.12300
N789        N  0.35698670  0.37036156  0.93156397     0.64900
H790        H  0.30344286  0.36689737  0.96527956     0.12800
N791        N  0.24833313  0.39411296  0.88099826     0.61500
H792        H  0.30269238  0.39822612  0.84727985     0.08900
O793        O  0.46767605  0.46065276  0.87574938    -0.39900
O794        O  0.46767506  0.47433540  0.82411853    -0.39100
O795        O  0.29166677  0.34117185  0.80435861    -0.39100
O796        O  0.29715369  0.30611976  0.83962828    -0.36800
O797        O  0.25180309  0.42502289  0.88382525    -0.37700
O798        O  0.22502792  0.37100129  0.86103845    -0.33900
O799        O  0.38157425  0.39374184  0.95043675    -0.35300
O800        O  0.35306529  0.33928924  0.92831701    -0.39600
C801        C  0.06925136  0.44670298  0.13424563    -0.13300
C802        C  0.10388626  0.45201589  0.13863646     0.17100
C803        C  0.12393293  0.47161260  0.16708937     0.03400
C804        C  0.10825550  0.48324420  0.19091568    -0.11800
C805        C  0.07099728  0.47100717  0.18992678    -0.02800
C806        C  0.05184619  0.45431824  0.15989152     0.02700
C807        C  0.11782336  0.43588371  0.11379525     0.09500
N808        N  0.15789252  0.47502333  0.17482684     0.65900
H809        H  0.12315768  0.49488441  0.21380640     0.18800
N810        N  0.01472840  0.44417143  0.15509264     0.76300
H811        H  0.05473700  0.43420121  0.11132235     0.10300
C812        C  0.09549504  0.40000409  0.10132267     0.04000
C813        C  0.10815489  0.38630217  0.07663038    -0.04700
C814        C  0.14340977  0.40686521  0.06434450    -0.23100
C815        C  0.16627137  0.44234859  0.07735204     0.13200
C816        C  0.15327806  0.45648847  0.10162420    -0.12300
N817        N  0.06041364  0.37629366  0.11463258     0.64900
H818        H  0.09038351  0.35870191  0.06767627     0.12800
N819        N  0.20210720  0.46506864  0.06521244     0.61500
H820        H  0.17090305  0.48411495  0.11036751     0.08900
O821        O  0.99881332  0.43061133  0.12773001    -0.39900
O822        O  0.99871563  0.45206111  0.17662055    -0.39100
O823        O  0.18494363  0.50576564  0.18206245    -0.39100
O824        O  0.15924386  0.44683137  0.17997519    -0.36800
O825        O  0.20669241  0.47822383  0.03648976    -0.37700
O826        O  0.22855273  0.47757280  0.08516733    -0.33900
O827        O  0.03302867  0.36253093  0.09571642    -0.35300
O828        O  0.05758375  0.36428260  0.14364648    -0.39600
C829        C  0.32644661  0.42218658  0.09648371    -0.13300
C830        C  0.33028536  0.39474061  0.11107710     0.17100
C831        C  0.30673222  0.35833194  0.09943724     0.03400
C832        C  0.27913158  0.35035657  0.07659451    -0.11800
C833        C  0.27407166  0.37742379  0.06372759    -0.02800
C834        C  0.29898220  0.41401887  0.07305650     0.02700
C835        C  0.35310859  0.40363027  0.14223213     0.09500
N836        N  0.31071005  0.32869129  0.10903328     0.65900
H837        H  0.26158427  0.32232725  0.06862883     0.18800
N838        N  0.29584917  0.44321672  0.06040352     0.76300
H839        H  0.34354367  0.45017898  0.10452033     0.10300
C840        C  0.38753803  0.43575093  0.14731942     0.04000
C841        C  0.40331194  0.44549399  0.17962695    -0.04700
C842        C  0.38610824  0.42325056  0.20709756    -0.23100
C843        C  0.35330985  0.38961688  0.20084417     0.13200
C844        C  0.33703405  0.38140017  0.16953269    -0.12300
N845        N  0.40677114  0.45885321  0.12017634     0.64900
H846        H  0.42853326  0.47098510  0.18338269     0.12800
N847        N  0.33519280  0.36289247  0.22588121     0.61500
H848        H  0.31015787  0.35786597  0.16737639     0.08900
O849        O  0.31276759  0.45923384  0.03451555    -0.39900
O850        O  0.28326338  0.45792276  0.07875621    -0.39100
O851        O  0.28895318  0.30646122  0.12988894    -0.39100
O852        O  0.32448370  0.31729210  0.08821923    -0.36800
O853        O  0.31021847  0.36287744  0.24202300    -0.37700
O854        O  0.33440766  0.33324514  0.22268757    -0.33900
O855        O  0.41421922  0.49136969  0.12043041    -0.35300
O856        O  0.42264667  0.44930600  0.09994810    -0.39600
O857        O  0.12343256  0.80348216  0.04193541    -0.84200
O858        O  0.13271667  0.86977282  0.02589473    -0.81300
C859        C  0.15773427  0.89455748  0.04386797     0.99200
O860        O  0.19028201  0.90410865  0.03930774    -0.81300
O861        O  0.24766232  0.89630159  0.02360384    -0.84000
C862        C  0.24583292  0.87398773  0.04482110     1.03700
O863        O  0.21996004  0.84129113  0.04380293    -0.76700
O864        O  0.15430781  0.77855318  0.02733139    -0.76900
C865        C  0.13039673  0.77863987  0.04524767     1.03700
O866        O  0.11845659  0.78383795  0.97225056    -0.84200
O867        O  0.13126468  0.85112064  0.95628157    -0.81300
C868        C  0.14817852  0.88499968  0.95287494     0.99200
O869        O  0.17502572  0.90532821  0.97120627    -0.81300
O870        O  0.22843025  0.89035957  0.95453407    -0.83900
C871        C  0.24574732  0.87407288  0.95406365     1.03700
O872        O  0.23949532  0.85034584  0.97561317    -0.76800
O873        O  0.17182032  0.79338899  0.95888575    -0.76900
C874        C  0.13810819  0.77670535  0.95417156     1.03700
Cr875      Cr  0.13023354  0.82860896  0.99911075     1.93700
Cr876      Cr  0.20784068  0.89509404  0.99715677     1.93200
Cr877      Cr  0.19502325  0.81819865  0.00139944     1.39100
O878        O  0.17752826  0.84725794  0.99923224    -1.22000
O879        O  0.34277230  0.71323962  0.95692352    -0.84200
O880        O  0.27082021  0.66498959  0.97294538    -0.81300
C881        C  0.26065469  0.63712713  0.95491271     0.99200
O882        O  0.27376569  0.61721036  0.95932387    -0.81300
O883        O  0.32224770  0.59714896  0.97858952    -0.84000
C884        C  0.34917084  0.61380386  0.95979386     1.03700
O885        O  0.37042549  0.64778175  0.96327187    -0.76700
O886        O  0.39308041  0.72061167  0.97728520    -0.76900
C887        C  0.37686652  0.72983458  0.95685474     1.03700
O888        O  0.35860394  0.73333810  0.02513244    -0.84200
O889        O  0.28933686  0.68074989  0.04125396    -0.81300
C890        C  0.26276038  0.64918278  0.04570049     0.99200
O891        O  0.25863896  0.62244611  0.02845707    -0.81300
O892        O  0.31025877  0.60609017  0.04704594    -0.83900
C893        C  0.34095925  0.60966170  0.05059599     1.03700
O894        O  0.36705322  0.63250227  0.03296659    -0.76800
O895        O  0.38268006  0.70410607  0.04699629    -0.76900
C896        C  0.37896417  0.73149212  0.04657370     1.03700
Cr897      Cr  0.31636997  0.69518432  0.99926948     1.93700
Cr898      Cr  0.29404054  0.61469870  0.00331267     1.93200
Cr899      Cr  0.37459341  0.67503365  0.00504832     1.39100
O900        O  0.32828581  0.66152907  0.00282471    -1.22000
C901        C  0.47171835  0.50716941  0.25504799     0.03400
C902        C  0.46773828  0.97945931  0.25920814     0.03400
C903        C  0.99343754  0.96607872  0.25804371     0.03400
C904        C  0.02713747  0.49124974  0.25255079     0.03400
C905        C  0.03716018  0.52952599  0.25315817     0.03400
C906        C  0.00950330  0.53964815  0.25511653     0.03400
N907        N  0.44338937  0.51748791  0.25687569    -0.02400
C908        C  0.44170935  0.54225339  0.23577255     0.00200
C909        C  0.43573881  0.56615951  0.25371128    -0.22700
C910        C  0.43737009  0.06649173  0.29075212    -0.22900
C911        C  0.43794846  0.03502207  0.29060068     0.00100
H912        H  0.42822440  0.58478936  0.24396152     0.13900
H913        H  0.42554539  0.07518437  0.30969050     0.13900
N914        N  0.05943636  0.98734158  0.25199846    -0.02400
C915        C  0.05723474  0.96511017  0.22600569     0.00200
C916        C  0.05935870  0.93637637  0.23806412    -0.22700
C917        C  0.06680271  0.43988756  0.26678876    -0.22900
C918        C  0.06710376  0.47104608  0.27525822     0.00100
H919        H  0.06550264  0.91918933  0.22333535     0.13900
H920        H  0.08060146  0.42881164  0.28022144     0.13900
N921        N  0.07594172  0.55798809  0.24990809    -0.02400
C922        C  0.09397544  0.55777226  0.22184692     0.00200
C923        C  0.12468972  0.55759613  0.23068987    -0.22700
C924        C  0.12945139  0.56436414  0.26379336    -0.22900
C925        C  0.10073364  0.56653553  0.27543816     0.00100
H926        H  0.14586804  0.56109054  0.21407808     0.13900
H927        H  0.15398318  0.57173986  0.27719167     0.13900
N928        N  0.52193432  0.57648376  0.25238074    -0.02400
C929        C  0.53061026  0.59642718  0.28200344     0.00200
C930        C  0.56611176  0.62308775  0.28321981    -0.22700
C931        C  0.07903368  0.62615324  0.25675331    -0.22900
C932        C  0.05063613  0.60324024  0.23556483     0.00100
H933        H  0.57901391  0.64460574  0.30173247     0.13900
H934        H  0.10497417  0.64896309  0.24988880     0.13900
N935        N  0.43001168  0.94899452  0.26406740    -0.02400
C936        C  0.40210394  0.94663654  0.24535815     0.00200
C937        C  0.37409860  0.94045845  0.26536448    -0.22700
C938        C  0.38221817  0.93452001  0.29618998    -0.22900
C939        C  0.41562785  0.93804414  0.29572611     0.00100
H940        H  0.34782531  0.93507098  0.25738456     0.13900
H941        H  0.36280278  0.92264016  0.31567957     0.13900
N942        N  0.98443854  0.92672607  0.25711683    -0.02400
C943        C  0.97864191  0.90533749  0.28523169     0.00200
C944        C  0.94911879  0.87118539  0.28081183    -0.22700
C945        C  0.43946720  0.87333956  0.24480316    -0.22900
C946        C  0.46334882  0.90605044  0.23074521     0.00100
H947        H  0.93994657  0.84850466  0.29735216     0.13900
H948        H  0.41989048  0.84858810  0.23186326     0.13900
O949        O  0.28132751  0.64969531  0.53666041    -0.84200
O950        O  0.32974510  0.72006234  0.51808897    -0.81300
C951        C  0.35489467  0.72899433  0.53898975     0.99200
O952        O  0.37427446  0.71506198  0.53723274    -0.81300
O953        O  0.39790200  0.66812096  0.52295929    -0.84000
C954        C  0.38076978  0.64070750  0.54136653     1.03700
O955        O  0.34730980  0.61934270  0.53719448    -0.76700
O956        O  0.27680363  0.59793015  0.52330269    -0.76900
C957        C  0.26902089  0.61652402  0.54252461     1.03700
O958        O  0.26335758  0.62841918  0.46811247    -0.84200
O959        O  0.31797335  0.69760397  0.44973472    -0.81300
C960        C  0.34941273  0.72500602  0.44676748     0.99200
O961        O  0.37402266  0.73018333  0.46732972    -0.81300
O962        O  0.39013251  0.67778061  0.45318027    -0.83900
C963        C  0.38437589  0.64616556  0.44854445     1.03700
O964        O  0.36259819  0.62041239  0.46707787    -0.76800
O965        O  0.29316093  0.60262932  0.45244481    -0.76900
C966        C  0.26663980  0.60686716  0.44885158     1.03700
Cr967      Cr  0.30071023  0.67277592  0.49315772     1.93700
Cr968      Cr  0.38034545  0.69500846  0.49516295     1.93200
Cr969      Cr  0.32097777  0.61385371  0.49489121     1.39100
O970        O  0.33404862  0.66040769  0.49422018    -1.22000
O971        O  0.22270613  0.84150963  0.53344621    -0.84200
O972        O  0.16559559  0.77186803  0.51862334    -0.81300
C973        C  0.13798062  0.76456157  0.53563032     0.99200
O974        O  0.12055007  0.78004278  0.52998913    -0.81300
O975        O  0.11017373  0.83643730  0.51829883    -0.84000
C976        C  0.12960779  0.86137292  0.53928795     1.03700
O977        O  0.16366909  0.87691635  0.53837883    -0.76700
O978        O  0.23345956  0.89462402  0.51815501    -0.76900
C979        C  0.24216657  0.87565821  0.53507307     1.03700
O980        O  0.23569521  0.85776381  0.46338355    -0.84200
O981        O  0.17812198  0.78964931  0.44887140    -0.81300
C982        C  0.14572977  0.76483641  0.44431641     0.99200
O983        O  0.12094275  0.76532872  0.46061607    -0.81300
O984        O  0.11730300  0.82769517  0.44841958    -0.83900
C985        C  0.12262876  0.85942256  0.45078981     1.03700
O986        O  0.14580930  0.88176747  0.47135012    -0.76800
O987        O  0.20998810  0.88915052  0.45154571    -0.76900
C988        C  0.23428929  0.88189984  0.44644016     1.03700
Cr989      Cr  0.19803402  0.81656527  0.49116435     1.93700
Cr990      Cr  0.12113585  0.80463133  0.48926778     1.93200
Cr991      Cr  0.18681737  0.88164641  0.49479436     1.39100
O992        O  0.16867997  0.83401589  0.49173735    -1.22000
C993        C  0.46155020  0.49102501  0.75600786     0.03400
C994        C  0.46965850  0.95748250  0.75053947     0.03400
C995        C  0.00745836  0.96530142  0.75222018     0.03400
C996        C  0.03859284  0.50807004  0.75356148     0.03400
C997        C  0.03062350  0.53852241  0.75436812     0.03400
C998        C  0.99288753  0.52998395  0.75570531     0.03400
N999        N  0.07616670  0.00860038  0.75179384    -0.02400
C1000       C  0.09714480  0.02021073  0.78058556     0.00200
C1001       C  0.13229890  0.04676115  0.77345128    -0.22700
C1002       C  0.13519557  0.55841125  0.74629661    -0.22900
C1003       C  0.10260901  0.53478337  0.73072277     0.00100
H1004       H  0.15511902  0.05850155  0.79054892     0.13900
H1005       H  0.16110827  0.57484418  0.73442707     0.13900
N1006       N  0.42301019  0.48175177  0.75865762    -0.02400
C1007       C  0.40732555  0.47629356  0.78986294     0.00200
C1008       C  0.37797688  0.44210674  0.79259440    -0.22700
C1009       C  0.37117362  0.93504130  0.73442563    -0.22900
C1010       C  0.40402654  0.96119887  0.72246373     0.00100
H1011       H  0.35911493  0.43184247  0.81293051     0.13900
H1012       H  0.34727556  0.91741127  0.71975188     0.13900
N1013       N  0.48401797  0.55963383  0.75976725    -0.02400
C1014       C  0.45686067  0.56108724  0.74205731     0.00200
C1015       C  0.44120854  0.57534491  0.76202532    -0.22700
C1016       C  0.95898591  0.58428023  0.79136896    -0.22900
C1017       C  0.98594504  0.57646679  0.78987287     0.00100
H1018       H  0.42374190  0.58498270  0.75443583     0.13900
H1019       H  0.95581465  0.60049073  0.81025497     0.13900
N1020       N  0.05963111  0.57800736  0.75198817    -0.02400
C1021       C  0.09175062  0.59517394  0.77038143     0.00200
C1022       C  0.12064902  0.61313981  0.74895918    -0.22700
C1023       C  0.10792632  0.60795061  0.71778025    -0.22900
C1024       C  0.07125202  0.59255988  0.72050753     0.00100
H1025       H  0.14911871  0.62919929  0.75527611     0.13900
H1026       H  0.12441206  0.62245185  0.69662454     0.13900
N1027       N  0.01298716  0.93323765  0.75424851    -0.02400
C1028       C  0.03731476  0.93092150  0.73310881     0.00200
C1029       C  0.06265757  0.92789725  0.75115324    -0.22700
C1030       C  0.54622097  0.91208053  0.77563694    -0.22900
C1031       C  0.51800242  0.91739601  0.78088445     0.00100
H1032       H  0.08391087  0.92437497  0.74126200     0.13900
H1033       H  0.55671811  0.90077043  0.79311960     0.13900
N1034       N  0.43766597  0.92020858  0.75313595    -0.02400
C1035       C  0.42830608  0.90326827  0.78352657     0.00200
C1036       C  0.42271429  0.86879389  0.78105309    -0.22700
C1037       C  0.42768306  0.86290005  0.74917347    -0.22900
C1038       C  0.43335683  0.89284066  0.73190176     0.00100
H1039       H  0.41010751  0.84771271  0.79945488     0.13900
H1040       H  0.41915308  0.83634304  0.73878546     0.13900
C1041       C  0.09059682  0.67500061  0.67492977    -0.13300
C1042       C  0.07638089  0.66125694  0.64370337     0.17100
C1043       C  0.05115809  0.62322297  0.64057214     0.03400
C1044       C  0.04384488  0.60057284  0.66874064    -0.11800
C1045       C  0.06001198  0.61463482  0.70016906    -0.02800
C1046       C  0.08078207  0.65342679  0.70292720     0.02700
C1047       C  0.09134085  0.68750718  0.61543286     0.09500
N1048       N  0.03322601  0.60709955  0.60939927     0.65900
H1049       H  0.02607166  0.57153703  0.66585994     0.18800
N1050       N  0.09507009  0.67264428  0.73345819     0.76300
H1051       H  0.11158547  0.70315804  0.67788433     0.10300
C1052       C  0.09376299  0.72189750  0.61646361     0.04000
C1053       C  0.10989705  0.74604867  0.59039576    -0.04700
C1054       C  0.12502088  0.73827297  0.56327867    -0.23100
C1055       C  0.12447919  0.70519629  0.56269436     0.13200
C1056       C  0.10753718  0.68010540  0.58853132    -0.12300
N1057       N  0.08007268  0.73350786  0.64324086     0.64900
H1058       H  0.11077325  0.77171647  0.59158450     0.12800
N1059       N  0.14029814  0.69636609  0.53590890     0.61500
H1060       H  0.10743046  0.65484470  0.58780046     0.08900
O1061       O  0.08471885  0.69421639  0.74149528    -0.39900
O1062       O  0.12657791  0.68113619  0.74197393    -0.39100
O1063       O  0.01897527  0.57337368  0.60423027    -0.39100
O1064       O  0.02883118  0.62576930  0.58798924    -0.36800
O1065       O  0.17140961  0.70103785  0.53952158    -0.37700
O1066       O  0.12103858  0.67823245  0.51127314    -0.33900
O1067       O  0.10071312  0.75019129  0.66762085    -0.35300
O1068       O  0.05573130  0.74043323  0.63658086    -0.39600
C1069       C  0.04500176  0.87587668  0.66311446    -0.13300
C1070       C  0.05897542  0.90159579  0.63849262     0.17100
C1071       C  0.05223146  0.93045375  0.64029623     0.03400
C1072       C  0.03791973  0.93599100  0.67008703    -0.11800
C1073       C  0.03112242  0.91423347  0.69822937    -0.02800
C1074       C  0.03190332  0.88169614  0.69255529     0.02700
C1075       C  0.07951745  0.89582135  0.61190765     0.09500
N1076       N  0.05985268  0.95429730  0.61277759     0.65900
H1077       H  0.03399715  0.95850841  0.67203120     0.18800
N1078       N  0.02292429  0.85482595  0.71697396     0.76300
H1079       H  0.04648054  0.85152923  0.66048799     0.10300
C1080       C  0.11107179  0.89495519  0.61977288     0.04000
C1081       C  0.12749827  0.88482942  0.59550886    -0.04700
C1082       C  0.11226976  0.87359455  0.56371830    -0.23100
C1083       C  0.08074829  0.87436008  0.55581104     0.13200
C1084       C  0.06487656  0.88565101  0.57976100    -0.12300
N1085       N  0.12638845  0.90329245  0.65255976     0.64900
H1086       H  0.15154479  0.88430251  0.60205873     0.12800
N1087       N  0.06478036  0.86428125  0.52339164     0.61500
H1088       H  0.04032261  0.88532903  0.57355087     0.08900
O1089       O  0.99497662  0.82427809  0.71111140    -0.39900
O1090       O  0.51303387  0.82754702  0.72223040    -0.39100
O1091       O  0.08772534  0.96473276  0.59551073    -0.39100
O1092       O  0.03850327  0.96501816  0.60552625    -0.36800
O1093       O  0.03795191  0.83276174  0.51826851    -0.37700
O1094       O  0.07279868  0.88857875  0.50208614    -0.33900
O1095       O  0.11438063  0.87845132  0.67387019    -0.35300
O1096       O  0.15765769  0.93055932  0.65674066    -0.39600
C1097       C  0.36106342  0.96925731  0.64449350    -0.13300
C1098       C  0.36679046  0.94715400  0.62343351     0.17100
C1099       C  0.39540911  0.94157028  0.63095906     0.03400
C1100       C  0.41296180  0.95281136  0.66238728    -0.11800
C1101       C  0.40292308  0.96991252  0.68639979    -0.02800
C1102       C  0.37821623  0.98038994  0.67548398     0.02700
C1103       C  0.33862352  0.92672662  0.59738765     0.09500
N1104       N  0.40855535  0.92709390  0.60641674     0.65900
H1105       H  0.43716300  0.47711247  0.68469142     0.18800
N1106       N  0.36606921  0.99851212  0.69647588     0.76300
H1107       H  0.34025242  0.97519205  0.63819371     0.10300
C1108       C  0.30918564  0.89178057  0.60436482     0.04000
C1109       C  0.27861638  0.87531754  0.58344937    -0.04700
C1110       C  0.27596716  0.89350799  0.55578350    -0.23100
C1111       C  0.30595293  0.92830108  0.54829289     0.13200
C1112       C  0.33671903  0.94459816  0.56916838    -0.12300
N1113       N  0.30881400  0.87385616  0.63418197     0.64900
H1114       H  0.25613173  0.84875049  0.58980075     0.12800
N1115       N  0.30583247  0.94732295  0.51939854     0.61500
H1116       H  0.35876751  0.97179548  0.56389412     0.08900
O1117       O  0.33262714  0.98204079  0.70220784    -0.39900
O1118       O  0.38276516  0.03267219  0.69486465    -0.39100
O1119       O  0.44132954  0.50704638  0.61737299    -0.39100
O1120       O  0.38693113  0.89983015  0.58892111    -0.36800
O1121       O  0.29903532  0.97244971  0.52213331    -0.37700
O1122       O  0.31830372  0.94323402  0.49248452    -0.33900
O1123       O  0.29775134  0.88044042  0.66079032    -0.35300
O1124       O  0.31343484  0.84723676  0.63266626    -0.39600
C1125       C  0.42135259  0.55956628  0.65336420    -0.13300
C1126       C  0.44529848  0.59486972  0.64294155     0.17100
C1127       C  0.47513818  0.61731776  0.66413869     0.03400
C1128       C  0.48040717  0.60319248  0.69399621    -0.11800
C1129       C  0.45541205  0.56805167  0.70524982    -0.02800
C1130       C  0.42278381  0.54910803  0.68607211     0.02700
C1131       C  0.43294180  0.60934845  0.61499580     0.09500
N1132       N  0.49926453  0.65487774  0.65672326     0.65900
H1133       H  0.00398353  0.62310755  0.71244721     0.18800
N1134       N  0.38860049  0.53212257  0.70195858     0.76300
H1135       H  0.39614097  0.54387652  0.63971083     0.10300
C1136       C  0.42233883  0.59203735  0.58329002     0.04000
C1137       C  0.40624318  0.60334837  0.55966334    -0.04700
C1138       C  0.40029737  0.63183506  0.56648369    -0.23100
C1139       C  0.41161276  0.64989482  0.59752441     0.13200
C1140       C  0.42738707  0.63842926  0.62145752    -0.12300
N1141       N  0.42724922  0.56261620  0.57448013     0.64900
H1142       H  0.39780219  0.58930515  0.53582857     0.12800
N1143       N  0.40563983  0.67873890  0.60574458     0.61500
H1144       H  0.43422970  0.65160121  0.64570827     0.08900
O1145       O  0.36395924  0.50244270  0.68986832    -0.39900
O1146       O  0.37914049  0.55340093  0.71322572    -0.39100
O1147       O  0.01767890  0.68084151  0.68331385    -0.39100
O1148       O  0.50569876  0.66518735  0.62695513    -0.36800
O1149       O  0.37669313  0.67158231  0.61979333    -0.37700
O1150       O  0.43159952  0.71121980  0.60472679    -0.33900
O1151       O  0.40112224  0.53053424  0.57790122    -0.35300
O1152       O  0.45157882  0.56829136  0.55397556    -0.39600
C1153       C  0.21026253  0.60044952  0.61922282    -0.13300
C1154       C  0.19281655  0.56256991  0.62297900     0.17100
C1155       C  0.20296160  0.54299339  0.60162898     0.03400
C1156       C  0.22812919  0.56114389  0.57617021    -0.11800
C1157       C  0.24428167  0.59882933  0.57143873    -0.02800
C1158       C  0.23582735  0.61862167  0.59424976     0.02700
C1159       C  0.16206851  0.54485876  0.64710802     0.09500
N1160       N  0.18735080  0.50459664  0.60437834     0.65900
H1161       H  0.23455356  0.54529316  0.55960608     0.18800
N1162       N  0.25272506  0.65724736  0.59247532     0.76300
H1163       H  0.20352425  0.61616061  0.63567498     0.10300
C1164       C  0.16045563  0.52275438  0.67357885     0.04000
C1165       C  0.13147453  0.50925949  0.69614210    -0.04700
C1166       C  0.10770353  0.52271371  0.69693300    -0.23100
C1167       C  0.10711079  0.54147745  0.66838756     0.13200
C1168       C  0.13421666  0.55228188  0.64416575    -0.12300
N1169       N  0.19068815  0.51896440  0.68141256     0.64900
H1170       H  0.13233102  0.49449328  0.71728841     0.12800
N1171       N  0.06740727  0.02943113  0.65927092     0.61500
H1172       H  0.13424161  0.56757245  0.62291669     0.08900
O1173       O  0.28161847  0.67739984  0.60850342    -0.39900
O1174       O  0.23612532  0.67097343  0.57918507    -0.39100
O1175       O  0.16488677  0.48404423  0.58250033    -0.39100
O1176       O  0.20437712  0.49307074  0.62053430    -0.36800
O1177       O  0.04161875  0.01604105  0.67942206    -0.37700
O1178       O  0.06424611  0.04335722  0.63294784    -0.33900
O1179       O  0.22180525  0.54697620  0.68409458    -0.35300
O1180       O  0.18554298  0.48918599  0.69213864    -0.39600
C1181       C  0.36390601  0.81031304  0.58660866    -0.13300
C1182       C  0.38099223  0.80910381  0.61576598     0.17100
C1183       C  0.38727385  0.78041496  0.62032440     0.03400
C1184       C  0.37850502  0.75476821  0.59495240    -0.11800
C1185       C  0.36232453  0.75629179  0.56527700    -0.02800
C1186       C  0.35435446  0.78408365  0.56139098     0.02700
C1187       C  0.39250261  0.83784065  0.64142142     0.09500
N1188       N  0.40250240  0.77695881  0.65064677     0.65900
H1189       H  0.38392115  0.73317115  0.59871128     0.18800
N1190       N  0.33796840  0.78695653  0.53159840     0.76300
H1191       H  0.35810095  0.83171113  0.58330096     0.10300
C1192       C  0.42804836  0.86789092  0.64305948     0.04000
C1193       C  0.43912654  0.89133495  0.67095548    -0.04700
C1194       C  0.41631988  0.88408178  0.69815319    -0.23100
C1195       C  0.37945692  0.85584218  0.69436220     0.13200
C1196       C  0.36815533  0.83336040  0.66611419    -0.12300
N1197       N  0.45359647  0.87351230  0.61771346     0.64900
H1198       H  0.46636731  0.91387104  0.67272661     0.12800
N1199       N  0.35433305  0.84545619  0.72096053     0.61500
H1200       H  0.34075453  0.81024404  0.66482438     0.08900
O1201       O  0.35745448  0.80883317  0.50942460    -0.39900
O1202       O  0.30415150  0.77277353  0.53010254    -0.39100
O1203       O  0.38285548  0.76473706  0.67599280    -0.39100
O1204       O  0.43245164  0.77856347  0.65015640    -0.36800
O1205       O  0.34869074  0.81895439  0.73865506    -0.37700
O1206       O  0.32972275  0.85279962  0.71874955    -0.33900
O1207       O  0.47082085  0.90369848  0.60342625    -0.35300
O1208       O  0.46021275  0.84892457  0.61045615    -0.39600
C1209       C  0.08518377  0.91329697  0.40992236    -0.13300
C1210       C  0.05264800  0.88519833  0.39651169     0.17100
C1211       C  0.04237931  0.84877540  0.40275198     0.03400
C1212       C  0.06565419  0.84121110  0.42021679    -0.11800
C1213       C  0.09916367  0.86926392  0.43229850    -0.02800
C1214       C  0.10832523  0.90576319  0.42793385     0.02700
C1215       C  0.03570343  0.89375255  0.36883545     0.09500
N1216       N  0.00901822  0.81906167  0.39019811     0.65900
H1217       H  0.05738524  0.81304904  0.42415131     0.18800
N1218       N  0.14198584  0.93563627  0.43961530     0.76300
H1219       H  0.09379548  0.94129645  0.40457747     0.10300
C1220       C  0.01836624  0.91365308  0.37204946     0.04000
C1221       C  0.00419605  0.92091625  0.34335376    -0.04700
C1222       C  0.00434461  0.90682372  0.31181724    -0.23100
C1223       C  0.01858539  0.88321507  0.31082059     0.13200
C1224       C  0.03715377  0.88061587  0.33780251    -0.12300
N1225       N  0.01074792  0.92215049  0.40429217     0.64900
H1226       H  0.99033166  0.93506646  0.34569492     0.12800
N1227       N  0.01152867  0.85784971  0.28472465     0.61500
H1228       H  0.04976657  0.86452383  0.33515664     0.08900
O1229       O  0.14471100  0.94680556  0.46922158    -0.39900
O1230       O  0.16526348  0.95589271  0.41875587    -0.39100
O1231       O  0.00936939  0.80025670  0.36606930    -0.39100
O1232       O  0.98121915  0.80641218  0.40799532    -0.36800
O1233       O  0.03859909  0.86043164  0.27029595    -0.37700
O1234       O  0.98449457  0.82631368  0.28845700    -0.33900
O1235       O  0.03309722  0.95165302  0.41861835    -0.35300
O1236       O  0.98501092  0.89758392  0.42068967    -0.39600
C1237       C  0.41322332  0.87704737  0.36700336    -0.13300
C1238       C  0.39080875  0.84241556  0.35305076     0.17100
C1239       C  0.37793548  0.83989301  0.32052383     0.10200
C1240       C  0.38908635  0.87160448  0.30235146    -0.11800
C1241       C  0.41324942  0.90685976  0.31513492    -0.02800
C1242       C  0.42256168  0.90892232  0.34945510     0.02700
C1243       C  0.37931750  0.80969681  0.37393905     0.09500
N1244       N  0.35427885  0.80534550  0.30516674     0.65900
H1245       H  0.37902407  0.86880979  0.27753581     0.18800
N1246       N  0.43599533  0.94147743  0.36879338     0.76300
H1247       H  0.42122525  0.87935664  0.39289609     0.10300
C1248       C  0.40514425  0.80324683  0.38830263     0.04000
C1249       C  0.39463406  0.77528012  0.41130080    -0.04700
C1250       C  0.35822810  0.75240195  0.42008894    -0.23100
C1251       C  0.33202295  0.75809203  0.40474590     0.13200
C1252       C  0.34283188  0.78680763  0.38224146    -0.12300
N1253       N  0.44237248  0.82524165  0.37985474     0.64900
H1254       H  0.41527317  0.77139349  0.42229168     0.12800
N1255       N  0.29460415  0.73611446  0.41272865     0.61500
H1256       H  0.32268555  0.79175926  0.37176153     0.08900
O1257       O  0.41850216  0.94052511  0.39418445    -0.39900
O1258       O  0.46917498  0.96483067  0.36830374    -0.39100
O1259       O  0.32236810  0.79643018  0.29766031    -0.39100
O1260       O  0.36680380  0.78639662  0.29452692    -0.36800
O1261       O  0.27865165  0.75046824  0.42633048    -0.37700
O1262       O  0.27630013  0.70416124  0.40110310    -0.33900
O1263       O  0.46559472  0.84316139  0.40219243    -0.35300
O1264       O  0.45218184  0.82610631  0.35020671    -0.39600
C1265       C  0.47723288  0.63813260  0.31775320    -0.13300
C1266       C  0.46892439  0.62325840  0.34949045     0.17100
C1267       C  0.48271265  0.60122636  0.35929915     0.03400
C1268       C  0.50071781  0.59144207  0.33617474    -0.11800
C1269       C  0.50702368  0.60428694  0.30348372    -0.02800
C1270       C  0.49881211  0.63171664  0.29611741     0.02700
C1271       C  0.44579456  0.63032344  0.37219871     0.09500
N1272       N  0.48219391  0.59208358  0.39348933     0.65900
H1273       H  0.51169345  0.57528149  0.34422694     0.18800
N1274       N  0.51670664  0.65769119  0.27056233     0.76300
H1275       H  0.46824917  0.65613738  0.30995228     0.10300
C1276       C  0.45313736  0.66560710  0.38077153     0.04000
C1277       C  0.43259146  0.66987813  0.40535262    -0.04700
C1278       C  0.40441077  0.63983720  0.42173918    -0.23100
C1279       C  0.39588972  0.60466283  0.41164786     0.13200
C1280       C  0.41578153  0.60036098  0.38655005    -0.12300
N1281       N  0.48120176  0.69755183  0.36524180     0.64900
H1282       H  0.43918542  0.69718101  0.41185425     0.12800
N1283       N  0.36725708  0.57281036  0.42658767     0.61500
H1284       H  0.40812401  0.57308665  0.37871541     0.08900
O1285       O  0.49776256  0.66354843  0.25059698    -0.39900
O1286       O  0.54816303  0.68370791  0.27720329    -0.39100
O1287       O  0.45521758  0.56425314  0.40531382    -0.39100
O1288       O  0.50866988  0.61249700  0.41220732    -0.36800
O1289       O  0.37273923  0.56235932  0.45400579    -0.37700
O1290       O  0.33996467  0.55124282  0.40926793    -0.33900
O1291       O  0.47368043  0.70854219  0.33920801    -0.35300
O1292       O  0.50768255  0.72030841  0.38277101    -0.39600
C1293       C  0.14401324  0.65422258  0.32892017    -0.13300
C1294       C  0.12056779  0.64472076  0.35584614     0.17100
C1295       C  0.09162637  0.60802293  0.35802046     0.03400
C1296       C  0.08463690  0.58374280  0.33086796    -0.11800
C1297       C  0.10841956  0.59308709  0.30394959    -0.02800
C1298       C  0.14004397  0.62865846  0.30473781     0.02700
C1299       C  0.12629494  0.67433773  0.37984231     0.09500
N1300       N  0.07046146  0.59438349  0.38785033     0.65900
H1301       H  0.06006713  0.55776615  0.33047916     0.18800
N1302       N  0.16901629  0.63985759  0.28170284     0.76300
H1303       H  0.16648574  0.68187826  0.32693771     0.10300
C1304       C  0.15930916  0.69576422  0.39728426     0.04000
C1305       C  0.16467075  0.72483295  0.41764334    -0.04700
C1306       C  0.13790317  0.73378333  0.42146725    -0.23100
C1307       C  0.10474196  0.71227818  0.40432775     0.13200
C1308       C  0.09923810  0.68300359  0.38374132    -0.12300
N1309       N  0.18766525  0.68810183  0.39534238     0.64900
H1310       H  0.19015993  0.74037400  0.43092041     0.12800
N1311       N  0.07724128  0.72111931  0.40594824     0.61500
H1312       H  0.07395164  0.66740733  0.37015975     0.08900
O1313       O  0.19495990  0.63583851  0.28974907    -0.39900
O1314       O  0.17500222  0.66428260  0.26117305    -0.39100
O1315       O  0.04501550  0.56166959  0.38900052    -0.39100
O1316       O  0.08082238  0.61241842  0.41474006    -0.36800
O1317       O  0.07680436  0.74253224  0.38499201    -0.37700
O1318       O  0.05078518  0.70376200  0.42505492    -0.33900
O1319       O  0.21260263  0.70509923  0.37467051    -0.35300
O1320       O  0.19340717  0.67368737  0.41990878    -0.39600
C1321       C  0.20683098  0.53874187  0.38029525    -0.13300
C1322       C  0.18425761  0.55205247  0.37194261     0.17100
C1323       C  0.18961929  0.58333641  0.38889941     0.03400
C1324       C  0.21616271  0.60011433  0.41366669    -0.11800
C1325       C  0.23870146  0.58693487  0.42226944    -0.02800
C1326       C  0.23403719  0.55591677  0.40486806     0.02700
C1327       C  0.15447897  0.53251957  0.34664241     0.09500
N1328       N  0.17044563  0.60050425  0.37937067     0.65900
H1329       H  0.21963633  0.62440271  0.42569580     0.18800
N1330       N  0.25539992  0.54039198  0.41264965     0.76300
H1331       H  0.20264887  0.51412321  0.36842897     0.10300
C1332       C  0.16019600  0.52101760  0.31560225     0.04000
C1333       C  0.13137707  0.50217612  0.29319646    -0.04700
C1334       C  0.09626057  0.49520697  0.29984180    -0.23100
C1335       C  0.09016318  0.50596179  0.33149247     0.13200
C1336       C  0.11929544  0.52402637  0.35429765    -0.12300
N1337       N  0.19531929  0.52914103  0.30581196     0.64900
H1338       H  0.13678864  0.49345641  0.26973015     0.12800
N1339       N  0.05631569  0.00240652  0.34486103     0.61500
H1340       H  0.11437355  0.53117756  0.37872505     0.08900
O1341       O  0.25330678  0.52761139  0.44119145    -0.39900
O1342       O  0.26988520  0.53249873  0.38949517    -0.39100
O1343       O  0.14586621  0.59797475  0.39798995    -0.39100
O1344       O  0.18546874  0.62646776  0.35939676    -0.36800
O1345       O  0.03276103  0.99700587  0.32343018    -0.37700
O1346       O  0.05007606  0.00573935  0.37489093    -0.33900
O1347       O  0.20105412  0.50354695  0.30068149    -0.35300
O1348       O  0.21805919  0.56068633  0.29611788    -0.39600
C1349       C  0.38250642  0.97957574  0.36421668    -0.13300
C1350       C  0.34729599  0.96540712  0.35216674     0.17100
C1351       C  0.34213070  0.97620130  0.32080547     0.03400
C1352       C  0.37203579  0.99816221  0.30101018    -0.11800
C1353       C  0.40746756  0.00832810  0.31115044    -0.02800
C1354       C  0.41275297  0.00102033  0.34415494     0.02700
C1355       C  0.31654695  0.94212358  0.37399660     0.09500
N1356       N  0.30669546  0.96423661  0.30836554     0.65900
H1357       H  0.36760644  0.00641338  0.27696117     0.18800
N1358       N  0.45679883  0.50844403  0.35112509     0.76300
H1359       H  0.38617731  0.97397150  0.38959958     0.10300
C1360       C  0.30902288  0.90761136  0.38451739     0.04000
C1361       C  0.28221146  0.88854985  0.40809873    -0.04700
C1362       C  0.26222903  0.90289783  0.42132581    -0.23100
C1363       C  0.26949627  0.93722790  0.41034189     0.13200
C1364       C  0.29628015  0.95626987  0.38678973    -0.12300
N1365       N  0.32696201  0.89054254  0.37060207     0.64900
H1366       H  0.27666110  0.86203396  0.41570043     0.12800
N1367       N  0.25126944  0.95410828  0.42397599     0.61500
H1368       H  0.30221652  0.98296785  0.37934722     0.08900
O1369       O  0.46808565  0.51389047  0.38081169    -0.39900
O1370       O  0.47663460  0.50760250  0.32867403    -0.39100
O1371       O  0.29599531  0.98645714  0.30638529    -0.39100
O1372       O  0.28831129  0.93318132  0.29493094    -0.36800
O1373       O  0.25994682  0.96857651  0.45256740    -0.37700
O1374       O  0.23144517  0.96014221  0.40541673    -0.33900
O1375       O  0.34558239  0.88327300  0.38958124    -0.35300
O1376       O  0.31440528  0.87225089  0.34405130    -0.39600
C1377       C  0.37537079  0.53693613  0.82785652    -0.13300
C1378       C  0.38330683  0.53638729  0.86140297     0.17100
C1379       C  0.39686482  0.51422981  0.87087792     0.03400
C1380       C  0.40902980  0.49977447  0.84634947    -0.11800
C1381       C  0.40392144  0.50250485  0.81218103    -0.02800
C1382       C  0.38071748  0.51585204  0.80433098     0.02700
C1383       C  0.37388612  0.55610568  0.88602716     0.09500
N1384       N  0.39717964  0.50489567  0.90490445     0.65900
H1385       H  0.42942885  0.98702423  0.83835323     0.18800
N1386       N  0.35352037  0.49887331  0.77906245     0.76300
H1387       H  0.35932482  0.54864957  0.82107808     0.10300
C1388       C  0.38930576  0.59411151  0.88454402     0.04000
C1389       C  0.38115432  0.61220340  0.90891277    -0.04700
C1390       C  0.35621959  0.59303759  0.93410138    -0.23100
C1391       C  0.33890718  0.55451036  0.93417696     0.13200
C1392       C  0.34845517  0.53671037  0.91066271    -0.12300
N1393       N  0.41304056  0.61478425  0.85824828     0.64900
H1394       H  0.39397542  0.64148540  0.90763234     0.12800
N1395       N  0.31108077  0.53278805  0.95732231     0.61500
H1396       H  0.33502871  0.50733551  0.91104931     0.08900
O1397       O  0.34394682  0.51804270  0.76384137    -0.39900
O1398       O  0.32983163  0.46592911  0.78325482    -0.39100
O1399       O  0.38330854  0.98745182  0.91603459    -0.39100
O1400       O  0.42296179  0.52589232  0.92403093    -0.36800
O1401       O  0.31541125  0.51268815  0.97705625    -0.37700
O1402       O  0.27969694  0.52707342  0.95256868    -0.33900
O1403       O  0.39986359  0.61850281  0.83161563    -0.35300
O1404       O  0.44609269  0.63624428  0.86455636    -0.39600
C1405       C  0.37321830  0.55017662  0.09015154    -0.13300
C1406       C  0.36030889  0.54604867  0.12284572     0.17100
C1407       C  0.33747638  0.55969627  0.13037685     0.03400
C1408       C  0.32971517  0.57828248  0.10596902    -0.11800
C1409       C  0.34630957  0.58611013  0.07459395    -0.02800
C1410       C  0.36776153  0.57096218  0.06664892     0.02700
C1411       C  0.38060194  0.53898354  0.14933461     0.09500
N1412       N  0.32480440  0.55823090  0.16341989     0.65900
H1413       H  0.31288985  0.58921871  0.11256281     0.18800
N1414       N  0.38570424  0.57759684  0.03538654     0.76300
H1415       H  0.39119453  0.54049179  0.08390145     0.10300
C1416       C  0.36596175  0.51033771  0.17246743     0.04000
C1417       C  0.38849810  0.50875438  0.19731190    -0.04700
C1418       C  0.42524472  0.53634705  0.20133890    -0.23100
C1419       C  0.43898031  0.56587946  0.17824771     0.13200
C1420       C  0.41725646  0.56477900  0.15181479    -0.12300
N1421       N  0.32819330  0.48394347  0.17263858     0.64900
H1422       H  0.38413945  0.99786496  0.21981373     0.12800
N1423       N  0.47260694  0.59980748  0.18313532     0.61500
H1424       H  0.42815414  0.58713034  0.13455781     0.08900
O1425       O  0.38038625  0.55094318  0.01752869    -0.39900
O1426       O  0.41338505  0.60834298  0.03030411    -0.39100
O1427       O  0.34647544  0.57917628  0.18561453    -0.39100
O1428       O  0.29127485  0.54202036  0.16861173    -0.36800
O1429       O  0.48637098  0.60984005  0.21159639    -0.37700
O1430       O  0.48504325  0.62307428  0.16032637    -0.33900
O1431       O  0.32505646  0.95852422  0.17268128    -0.35300
O1432       O  0.30821146  0.48847421  0.19236439    -0.39600
C1433       C  0.11525427  0.58409282  0.85824311    -0.13300
C1434       C  0.14982392  0.61511389  0.85988414     0.17100
C1435       C  0.15742969  0.64384498  0.83862380     0.03400
C1436       C  0.13231479  0.63915700  0.81403797    -0.11800
C1437       C  0.10052189  0.60500195  0.80749399    -0.02800
C1438       C  0.08958948  0.58006347  0.83402366     0.02700
C1439       C  0.17709309  0.61786307  0.88450730     0.09500
N1440       N  0.19154878  0.67713941  0.84009143     0.65900
H1441       H  0.14055247  0.66114240  0.79682725     0.18800
N1442       N  0.05250187  0.55805509  0.84266312     0.76300
H1443       H  0.10758769  0.56334254  0.87678201     0.10300
C1444       C  0.17082595  0.61581829  0.91906171     0.04000
C1445       C  0.19811059  0.62108603  0.94145694    -0.04700
C1446       C  0.23149883  0.62734074  0.93017965    -0.23100
C1447       C  0.23723477  0.62761988  0.89571860     0.13200
C1448       C  0.21018287  0.62304409  0.87323081    -0.12300
N1449       N  0.13733018  0.60951960  0.93188110     0.64900
H1450       H  0.19338264  0.62083369  0.96793145     0.12800
N1451       N  0.27104994  0.63449730  0.88324558     0.61500
H1452       H  0.21515688  0.62384394  0.84678786     0.08900
O1453       O  0.04373041  0.55157717  0.87284084    -0.39900
O1454       O  0.02815412  0.54633544  0.82082702    -0.39100
O1455       O  0.21597253  0.68212401  0.81997568    -0.39100
O1456       O  0.19471025  0.70378960  0.85651294    -0.36800
O1457       O  0.29423422  0.66597401  0.87373413    -0.37700
O1458       O  0.27537196  0.60821369  0.87681605    -0.33900
O1459       O  0.11436527  0.57835244  0.94223619    -0.35300
O1460       O  0.13391201  0.63619984  0.93910324    -0.39600
C1461       C  0.45102729  0.81994874  0.91929577    -0.13300
C1462       C  0.43283152  0.82322027  0.89180572     0.17100
C1463       C  0.39641330  0.79569567  0.88613561     0.03400
C1464       C  0.37925321  0.76564653  0.90718867    -0.11800
C1465       C  0.39745477  0.76169995  0.93431936    -0.02800
C1466       C  0.43386695  0.78964353  0.94040854     0.02700
C1467       C  0.45379022  0.84944263  0.86473928     0.09500
N1468       N  0.37688455  0.79720354  0.85806014     0.65900
H1469       H  0.35137006  0.74501020  0.90197209     0.18800
N1470       N  0.45406281  0.78764891  0.96762777     0.76300
H1471       H  0.47930506  0.84009960  0.92342486     0.10300
C1472       C  0.47331850  0.88780852  0.86771113     0.04000
C1473       C  0.49266806  0.90934281  0.83979419    -0.04700
C1474       C  0.49341102  0.89378872  0.80891608    -0.23100
C1475       C  0.47778276  0.85508498  0.80901059     0.13200
C1476       C  0.45712100  0.83412597  0.83559957    -0.12300
N1477       N  0.47459192  0.90514464  0.89880817     0.64900
H1478       H  0.50802057  0.93841704  0.84259552     0.12800
N1479       N  0.48437090  0.83557890  0.78409420     0.61500
H1480       H  0.44512527  0.80486580  0.83418917     0.08900
O1481       O  0.46170368  0.80878052  0.99233645    -0.39900
O1482       O  0.47017198  0.77036946  0.96405376    -0.39100
O1483       O  0.36547518  0.77277227  0.83577559    -0.39100
O1484       O  0.36846769  0.82122171  0.85687342    -0.36800
O1485       O  0.45711035  0.80774719  0.77174183    -0.37700
O1486       O  0.51304975  0.83488460  0.78705975    -0.33900
O1487       O  0.50306816  0.93393090  0.90786286    -0.35300
O1488       O  0.44706422  0.89236484  0.91701112    -0.39600
C1489       C  0.11820763  0.58059744  0.13455128    -0.13300
C1490       C  0.14943795  0.61467951  0.13991047     0.17100
C1491       C  0.15134787  0.63478285  0.16837276     0.03400
C1492       C  0.12667345  0.61731572  0.19402072    -0.11800
C1493       C  0.09970655  0.58029586  0.19165208    -0.02800
C1494       C  0.09274929  0.56378590  0.15987732     0.02700
C1495       C  0.18088409  0.62601970  0.11781965     0.09500
N1496       N  0.18037172  0.67134558  0.17336616     0.65900
H1497       H  0.13257697  0.63085107  0.21763554     0.18800
N1498       N  0.06005663  0.53016197  0.15344795     0.76300
H1499       H  0.11485318  0.56625565  0.11126594     0.10300
C1500       C  0.19427463  0.60259300  0.11290498     0.04000
C1501       C  0.22087159  0.61072769  0.08933645    -0.04700
C1502       C  0.23562970  0.64274815  0.07105237    -0.23100
C1503       C  0.22388119  0.66739614  0.07718596     0.13200
C1504       C  0.19688593  0.65902510  0.10073833    -0.12300
N1505       N  0.18206707  0.57109181  0.13281012     0.64900
H1506       H  0.23049958  0.59213885  0.08571403     0.12800
N1507       N  0.23712271  0.69961542  0.05804543     0.61500
H1508       H  0.18781546  0.67791235  0.10487194     0.08900
O1509       O  0.05227898  0.51661778  0.12443452    -0.39900
O1510       O  0.03577969  0.51823825  0.17507068    -0.39100
O1511       O  0.17401267  0.69687354  0.17355782    -0.39100
O1512       O  0.21122036  0.67766308  0.18181856    -0.36800
O1513       O  0.22457572  0.69755116  0.02920506    -0.37700
O1514       O  0.25665240  0.73035829  0.07174561    -0.33900
O1515       O  0.16390442  0.53987405  0.11969416    -0.35300
O1516       O  0.19328504  0.57455114  0.16238795    -0.39600
C1517       C  0.48011009  0.86631676  0.15192094    -0.13300
C1518       C  0.44954410  0.85848905  0.13412649     0.17100
C1519       C  0.43082750  0.87547859  0.14420050     0.03400
C1520       C  0.44186226  0.89800241  0.17269822    -0.11800
C1521       C  0.46883054  0.90107774  0.19435335    -0.02800
C1522       C  0.48761867  0.88361441  0.18312460     0.02700
C1523       C  0.43346484  0.82641208  0.11087433     0.09500
N1524       N  0.39600771  0.86325860  0.13094192     0.65900
H1525       H  0.42467027  0.90724097  0.18112546     0.18800
N1526       N  0.99314362  0.85708338  0.21439202     0.76300
H1527       H  0.49290075  0.85110891  0.14558317     0.10300
C1528       C  0.42624160  0.82923907  0.07730023     0.04000
C1529       C  0.40866553  0.79788495  0.05717844    -0.04700
C1530       C  0.39944751  0.76347467  0.06921140    -0.23100
C1531       C  0.40846274  0.76088330  0.10232671     0.13200
C1532       C  0.42481759  0.79210170  0.12293923    -0.12300
N1533       N  0.43819732  0.86389901  0.06283688     0.64900
H1534       H  0.40294645  0.80065532  0.03148990     0.12800
N1535       N  0.39990275  0.72669909  0.11575441     0.61500
H1536       H  0.43040020  0.78947482  0.14870942     0.08900
O1537       O  0.96875125  0.82867739  0.22801628    -0.39900
O1538       O  0.02248737  0.85861656  0.20833835    -0.39100
O1539       O  0.36898030  0.83831078  0.14571154    -0.39100
O1540       O  0.39201018  0.88122134  0.10855727    -0.36800
O1541       O  0.37023538  0.70727532  0.13027799    -0.37700
O1542       O  0.42383883  0.71830987  0.11712856    -0.33900
O1543       O  0.47146678  0.88758541  0.06279175    -0.35300
O1544       O  0.41678947  0.86847523  0.04510084    -0.39600
C1545       C  0.11915064  0.70158050  0.89078592    -0.13300
C1546       C  0.08512531  0.69261310  0.87855666     0.17100
C1547       C  0.06901023  0.71166779  0.89090546     0.03400
C1548       C  0.08678633  0.73887007  0.91527747    -0.11800
C1549       C  0.12089220  0.74805251  0.92771387    -0.02800
C1550       C  0.13722887  0.72916473  0.91497923     0.02700
C1551       C  0.06500262  0.66103380  0.85542945     0.09500
N1552       N  0.03416880  0.70318315  0.87943346     0.65900
H1553       H  0.07376001  0.75302309  0.92440819     0.18800
N1554       N  0.17127012  0.73632614  0.92749125     0.76300
H1555       H  0.13122985  0.68636163  0.88216142     0.10300
C1556       C  0.06910456  0.66438414  0.82084430     0.04000
C1557       C  0.04574437  0.63467236  0.79952368    -0.04700
C1558       C  0.01760428  0.60169456  0.81218763    -0.23100
C1559       C  0.01327714  0.60020705  0.84736588     0.13200
C1560       C  0.03783939  0.62856453  0.86824960    -0.12300
N1561       N  0.09406215  0.69923181  0.80760861     0.64900
H1562       H  0.04679109  0.63798796  0.77307065     0.12800
N1563       N  0.98127418  0.57271629  0.86251303     0.61500
H1564       H  0.03343595  0.62642874  0.89486889     0.08900
O1565       O  0.19961104  0.75592224  0.91117427    -0.39900
O1566       O  0.17241728  0.71941918  0.95247169    -0.39100
O1567       O  0.00833405  0.69094368  0.89961890    -0.39100
O1568       O  0.03119636  0.71512127  0.85182921    -0.36800
O1569       O  0.97940675  0.54352778  0.87041288    -0.37700
O1570       O  0.96273968  0.58269911  0.87843838    -0.33900
O1571       O  0.08341988  0.72106846  0.80212017    -0.35300
O1572       O  0.12750286  0.71158776  0.81044841    -0.39600
C1573       C  0.07095814  0.72150566  0.11706905    -0.13300
C1574       C  0.07586336  0.69155774  0.11608192     0.17100
C1575       C  0.09421666  0.68817431  0.08867223     0.03400
C1576       C  0.11144935  0.71663010  0.06595774    -0.11800
C1577       C  0.10985066  0.74842748  0.06907594    -0.02800
C1578       C  0.08798764  0.74993894  0.09431320     0.02700
C1579       C  0.06607740  0.66738780  0.14579716     0.09500
N1580       N  0.09584348  0.65617496  0.08350213     0.65900
H1581       H  0.12638098  0.71376775  0.04579341     0.18800
N1582       N  0.08409114  0.78080854  0.09829868     0.76300
H1583       H  0.05507332  0.72371675  0.13667551     0.10300
C1584       C  0.07570139  0.68281859  0.17781374     0.04000
C1585       C  0.06733097  0.66073114  0.20526898    -0.04700
C1586       C  0.05074262  0.62231240  0.20331837    -0.23100
C1587       C  0.03851423  0.60625928  0.17097784     0.13200
C1588       C  0.04696064  0.62918432  0.14288910    -0.12300
N1589       N  0.09593928  0.72139002  0.18320230     0.64900
H1590       H  0.07612915  0.67506125  0.22867353     0.12800
N1591       N  0.52096132  0.56848891  0.16203258     0.61500
H1592       H  0.03704894  0.61706190  0.11859163     0.08900
O1593       O  0.05703636  0.78025214  0.08576934    -0.39900
O1594       O  0.10419887  0.80578929  0.11865357    -0.39100
O1595       O  0.07354815  0.63168195  0.06384955    -0.39100
O1596       O  0.12336623  0.65568672  0.09289230    -0.36800
O1597       O  0.51651392  0.55678036  0.13243121    -0.37700
O1598       O  0.49910442  0.54797172  0.18368498    -0.33900
O1599       O  0.08252111  0.73632193  0.20015895    -0.35300
O1600       O  0.12900454  0.73936582  0.17596501    -0.39600
C1601       C  0.09009888  0.97197795  0.86211035    -0.13300
C1602       C  0.11350019  0.95940413  0.85579905     0.17100
C1603       C  0.12967656  0.96491283  0.82456107     0.03400
C1604       C  0.12182128  0.98246171  0.80005973    -0.11800
C1605       C  0.09798088  0.99527666  0.80585495    -0.02800
C1606       C  0.08267390  0.99034562  0.83775004     0.02700
C1607       C  0.11992433  0.93945656  0.88168018     0.09500
N1608       N  0.15483517  0.95362165  0.81762563     0.65900
H1609       H  0.13497267  0.98672577  0.77624079     0.18800
N1610       N  0.05820747  0.00212149  0.84516801     0.76300
H1611       H  0.07704408  0.96681541  0.88604348     0.10300
C1612       C  0.13514266  0.95588848  0.91260490     0.04000
C1613       C  0.14337213  0.93719716  0.93562452    -0.04700
C1614       C  0.13617911  0.90197527  0.92856973    -0.23100
C1615       C  0.11878448  0.88465718  0.89841498     0.13200
C1616       C  0.11103789  0.90364162  0.87513016    -0.12300
N1617       N  0.14341218  0.99191397  0.92055906     0.64900
H1618       H  0.15588385  0.95055044  0.95905184     0.12800
N1619       N  0.11011799  0.84852232  0.89050873     0.61500
H1620       H  0.09839256  0.89055667  0.85165672     0.08900
O1621       O  0.05138041  0.00599358  0.87490839    -0.39900
O1622       O  0.03776699  0.00084511  0.82235908    -0.39100
O1623       O  0.14761251  0.92981047  0.79542569    -0.39100
O1624       O  0.18600961  0.97068484  0.83055075    -0.36800
O1625       O  0.07900876  0.82206804  0.89674173    -0.37700
O1626       O  0.13075518  0.84367912  0.87194725    -0.33900
O1627       O  0.12387812  0.99652161  0.94082514    -0.35300
O1628       O  0.17322150  0.01883509  0.91187368    -0.39600
C1629       C  0.39180230  0.91786215  0.86453799    -0.13300
C1630       C  0.35456464  0.89591694  0.85870034     0.17100
C1631       C  0.34218053  0.87740925  0.82819139     0.03400
C1632       C  0.36693731  0.88200799  0.80386378    -0.11800
C1633       C  0.40434161  0.90599244  0.80831847    -0.02800
C1634       C  0.41696938  0.92349815  0.83958365     0.02700
C1635       C  0.32868688  0.89326215  0.88410226     0.09500
N1636       N  0.30454505  0.85272511  0.82199937     0.65900
H1637       H  0.35676059  0.86666997  0.78104528     0.18800
N1638       N  0.45452544  0.94978438  0.84525517     0.76300
H1639       H  0.40112171  0.93198408  0.88818200     0.10300
C1640       C  0.32726666  0.87846525  0.91542548     0.04000
C1641       C  0.30058897  0.87344531  0.93784284    -0.04700
C1642       C  0.27494333  0.88309143  0.92987945    -0.23100
C1643       C  0.27742020  0.89953218  0.89899851     0.13200
C1644       C  0.30415275  0.90437078  0.87638857    -0.12300
N1645       N  0.35176676  0.86694997  0.92435121     0.64900
H1646       H  0.29974147  0.86135360  0.96159050     0.12800
N1647       N  0.25220819  0.90996638  0.88960268     0.61500
H1648       H  0.30544661  0.91633602  0.85245203     0.08900
O1649       O  0.46598789  0.96202129  0.87419406    -0.39900
O1650       O  0.47394049  0.96716380  0.82104368    -0.39100
O1651       O  0.28822196  0.86004565  0.80028706    -0.39100
O1652       O  0.28918320  0.82138355  0.83433060    -0.36800
O1653       O  0.25981101  0.94216009  0.89490655    -0.37700
O1654       O  0.22569729  0.88921276  0.87104108    -0.33900
O1655       O  0.37888693  0.88744786  0.94237683    -0.35300
O1656       O  0.34208626  0.83392515  0.92084072    -0.39600
C1657       C  0.07869292  0.95403860  0.13926096    -0.13300
C1658       C  0.11287286  0.95920176  0.14560300     0.17100
C1659       C  0.13179955  0.97887631  0.17438113     0.03400
C1660       C  0.11498984  0.99059802  0.19691349    -0.11800
C1661       C  0.07771917  0.97810862  0.19419306    -0.02800
C1662       C  0.06012953  0.96168100  0.16350426     0.02700
C1663       C  0.12685431  0.94228224  0.12215713     0.09500
N1664       N  0.16573206  0.98277700  0.18345675     0.65900
H1665       H  0.12873293  0.00228545  0.22023028     0.18800
N1666       N  0.02316680  0.95101143  0.15688709     0.76300
H1667       H  0.06526713  0.94116096  0.11600921     0.10300
C1668       C  0.10512998  0.90520853  0.11305270     0.04000
C1669       C  0.11569482  0.89064981  0.08742843    -0.04700
C1670       C  0.14819947  0.91203301  0.07064786    -0.23100
C1671       C  0.17082361  0.94895747  0.08038568     0.13200
C1672       C  0.16014755  0.96354628  0.10630725    -0.12300
N1673       N  0.07238773  0.88168975  0.13012517     0.64900
H1674       H  0.09845874  0.86212402  0.08092483     0.12800
N1675       N  0.20310969  0.97267760  0.06258675     0.61500
H1676       H  0.17707252  0.99205323  0.11286571     0.08900
O1677       O  0.00815682  0.93576467  0.12962163    -0.39900
O1678       O  0.00641978  0.96000645  0.17649169    -0.39100
O1679       O  0.19097662  0.01274865  0.19486527    -0.39100
O1680       O  0.16813386  0.95485041  0.18595738    -0.36800
O1681       O  0.20106885  0.97845701  0.03218270    -0.37700
O1682       O  0.23225025  0.99274976  0.07830263    -0.33900
O1683       O  0.04261078  0.86802205  0.11476776    -0.35300
O1684       O  0.07381382  0.86896979  0.15782531    -0.39600
C1685       C  0.32621351  0.92998199  0.10312708    -0.13300
C1686       C  0.33089249  0.90273942  0.11711959     0.17100
C1687       C  0.30790699  0.86633032  0.10517326     0.03400
C1688       C  0.28075386  0.85836475  0.08201042    -0.11800
C1689       C  0.27547597  0.88526529  0.06924810    -0.02800
C1690       C  0.29922275  0.92172936  0.07926295     0.02700
C1691       C  0.35499777  0.91203008  0.14729020     0.09500
N1692       N  0.31187064  0.83661209  0.11459437     0.65900
H1693       H  0.26375244  0.83039947  0.07360945     0.18800
N1694       N  0.29530410  0.95054394  0.06683862     0.76300
H1695       H  0.34228669  0.95781144  0.11177254     0.10300
C1696       C  0.38905738  0.94474067  0.15133096     0.04000
C1697       C  0.40614357  0.95506046  0.18300464    -0.04700
C1698       C  0.39131888  0.93215737  0.21048383    -0.23100
C1699       C  0.35951739  0.89757415  0.20480458     0.13200
C1700       C  0.34111564  0.88932388  0.17459372    -0.12300
N1701       N  0.40665622  0.96764624  0.12366443     0.64900
H1702       H  0.43060890  0.98117475  0.18624442     0.12800
N1703       N  0.34464873  0.87001657  0.22947008     0.61500
H1704       H  0.31457422  0.86529370  0.17343131     0.08900
O1705       O  0.31347236  0.96817920  0.04203358    -0.39900
O1706       O  0.28052855  0.96338441  0.08472260    -0.39100
O1707       O  0.29077715  0.81498264  0.13616041    -0.39100
O1708       O  0.32384117  0.82412303  0.09297205    -0.36800
O1709       O  0.31869743  0.86632893  0.24676987    -0.37700
O1710       O  0.34803191  0.84277971  0.22533156    -0.33900
O1711       O  0.40902864  0.99806425  0.12189116    -0.35300
O1712       O  0.42588461  0.96089986  0.10497615    -0.39600
O1713       O  0.62134142  0.29314809  0.03846154    -0.84200
O1714       O  0.62901176  0.36048929  0.02513762    -0.81300
C1715       C  0.65390924  0.38505782  0.04314911     0.99200
O1716       O  0.68642288  0.39467277  0.03828158    -0.81300
O1717       O  0.74357439  0.38728810  0.02032167    -0.84000
C1718       C  0.74333046  0.36361351  0.03877847     1.03700
O1719       O  0.71847091  0.33035503  0.03557447    -0.76700
O1720       O  0.65087038  0.26887515  0.01795366    -0.76900
C1721       C  0.62874435  0.26823512  0.03880691     1.03700
O1722       O  0.61364265  0.27734997  0.96798850    -0.84200
O1723       O  0.62657172  0.34540453  0.95499986    -0.81300
C1724       C  0.64533185  0.37929318  0.95082298     0.99200
O1725       O  0.67156675  0.39890449  0.97007160    -0.81300
O1726       O  0.72594987  0.38653208  0.95164520    -0.83900
C1727       C  0.74313898  0.37020309  0.94974361     1.03700
O1728       O  0.73485293  0.34343520  0.96798563    -0.76800
O1729       O  0.66590313  0.28918169  0.94911261    -0.76900
C1730       C  0.63194776  0.27328785  0.94573457     1.03700
Cr1731     Cr  0.62649238  0.32075931  0.99670301     1.93700
Cr1732     Cr  0.70415208  0.38768691  0.99503775     1.93200
Cr1733     Cr  0.69095569  0.31014874  0.99288443     1.39100
O1734       O  0.67389033  0.33965366  0.99515493    -1.22000
O1735       O  0.84952637  0.20967664  0.95033611    -0.84200
O1736       O  0.77733084  0.16283128  0.96534402    -0.81300
C1737       C  0.76783450  0.13502386  0.94726300     0.99200
O1738       O  0.77988341  0.11453578  0.95341029    -0.81300
O1739       O  0.82572828  0.09258215  0.97504185    -0.84000
C1740       C  0.85252959  0.10839221  0.95595534     1.03700
O1741       O  0.87456946  0.14223770  0.95923354    -0.76700
O1742       O  0.89878440  0.21535422  0.97169221    -0.76900
C1743       C  0.88348567  0.22459492  0.95018854     1.03700
O1744       O  0.86496663  0.23079248  0.01874546    -0.84200
O1745       O  0.79536940  0.17938606  0.03438132    -0.81300
C1746       C  0.76902905  0.14794288  0.03960300     0.99200
O1747       O  0.76282205  0.12126853  0.02123550    -0.81300
O1748       O  0.81238648  0.10398714  0.04268181    -0.83900
C1749       C  0.84243959  0.10654968  0.04739630     1.03700
O1750       O  0.86917801  0.12773996  0.02946188    -0.76800
O1751       O  0.88614689  0.19962968  0.04203317    -0.76900
C1752       C  0.88287329  0.22727409  0.04175091     1.03700
Cr1753     Cr  0.82253105  0.19281428  0.99246989     1.93700
Cr1754     Cr  0.79798674  0.11190125  0.99798929     1.93200
Cr1755     Cr  0.87874680  0.17030394  0.00044157     1.39100
O1756       O  0.83307355  0.15827449  0.99706959    -1.22000
C1757       C  0.97385187  0.01398758  0.25872962     0.03400
C1758       C  0.96140026  0.47106706  0.25833474     0.03400
C1759       C  0.49003655  0.45838847  0.25660497     0.03400
C1760       C  0.53365128  0.00041670  0.25461584     0.03400
C1761       C  0.54365687  0.03887248  0.25524646     0.03400
C1762       C  0.51540846  0.04801583  0.25551263     0.03400
N1763       N  0.94467783  0.02336995  0.26024701    -0.02400
C1764       C  0.94321540  0.04839672  0.23933181     0.00200
C1765       C  0.93788396  0.07255438  0.25760242    -0.22700
C1766       C  0.93114123  0.55919177  0.28848731    -0.22900
C1767       C  0.93401514  0.52890639  0.28986846     0.00100
H1768       H  0.93028883  0.09123558  0.24815479     0.13900
H1769       H  0.92006843  0.56861927  0.30749524     0.13900
N1770       N  0.55591908  0.47863818  0.25129436    -0.02400
C1771       C  0.55333555  0.45623169  0.22535668     0.00200
C1772       C  0.55602243  0.42781282  0.23730833    -0.22700
C1773       C  0.57299089  0.94899676  0.27277593    -0.22900
C1774       C  0.57031044  0.97854463  0.28145783     0.00100
H1775       H  0.56201040  0.41061691  0.22240759     0.13900
H1776       H  0.58548997  0.93752630  0.28766905     0.13900
N1777       N  0.58272659  0.06864256  0.25534256    -0.02400
C1778       C  0.60736643  0.06438482  0.23677869     0.00200
C1779       C  0.63197037  0.06319614  0.25795494    -0.22700
C1780       C  0.62979129  0.07725641  0.28740379    -0.22900
C1781       C  0.60044593  0.08114053  0.28567218     0.00100
H1782       H  0.65565167  0.06245983  0.25055796     0.13900
H1783       H  0.65025699  0.08774982  0.30672026     0.13900
N1784       N  0.02279830  0.08331890  0.25581917    -0.02400
C1785       C  0.03208489  0.10371363  0.28531754     0.00200
C1786       C  0.06727246  0.13135370  0.28492476    -0.22700
C1787       C  0.57036884  0.14581377  0.24172914    -0.22900
C1788       C  0.54937958  0.11106036  0.22862694     0.00100
H1789       H  0.08048609  0.15333534  0.30296355     0.13900
H1790       H  0.58912888  0.17045042  0.22886654     0.13900
N1791       N  0.92309592  0.44111383  0.26165249    -0.02400
C1792       C  0.89664903  0.44043431  0.24183014     0.00200
C1793       C  0.86871508  0.43641987  0.26095149    -0.22700
C1794       C  0.87450784  0.42864000  0.29201835    -0.22900
C1795       C  0.90706059  0.43026912  0.29268892     0.00100
H1796       H  0.84344028  0.43289276  0.25204193     0.13900
H1797       H  0.85397985  0.41708192  0.31078203     0.13900
N1798       N  0.48075346  0.41903876  0.25727238    -0.02400
C1799       C  0.47524373  0.39888891  0.28615629     0.00200
C1800       C  0.44618050  0.36429358  0.28243672    -0.22700
C1801       C  0.93399240  0.36354306  0.25477188    -0.22900
C1802       C  0.95641655  0.39437331  0.23745549     0.00100
H1803       H  0.43738131  0.34232440  0.29980783     0.13900
H1804       H  0.91393030  0.33731530  0.24441425     0.13900
O1805       O  0.78186380  0.15396415  0.54449083    -0.84200
O1806       O  0.83187348  0.22602165  0.52594998    -0.81300
C1807       C  0.85941362  0.23601842  0.54411050     0.99200
O1808       O  0.87764140  0.22092979  0.54121662    -0.81300
O1809       O  0.89625792  0.17024847  0.52501845    -0.84000
C1810       C  0.87864284  0.14289389  0.54358669     1.03700
O1811       O  0.84506962  0.12241448  0.53949199    -0.76700
O1812       O  0.77527001  0.10287916  0.52530668    -0.76900
C1813       C  0.76672587  0.11971611  0.54584546     1.03700
O1814       O  0.76222685  0.13551094  0.47597834    -0.84200
O1815       O  0.81599627  0.20320953  0.45775882    -0.81300
C1816       C  0.84765371  0.22886846  0.45215805     0.99200
O1817       O  0.87345414  0.23449871  0.47138118    -0.81300
O1818       O  0.88725139  0.18128981  0.45546159    -0.83900
C1819       C  0.88176797  0.14985782  0.45057925     1.03700
O1820       O  0.86052419  0.12425616  0.46944632    -0.76800
O1821       O  0.79197147  0.11106207  0.45591147    -0.76900
C1822       C  0.76515914  0.11515932  0.45495898     1.03700
Cr1823     Cr  0.80073014  0.17873967  0.50112168     1.93700
Cr1824     Cr  0.88000770  0.19908946  0.49846641     1.93200
Cr1825     Cr  0.81941367  0.11888896  0.49764961     1.39100
O1826       O  0.83347877  0.16559508  0.49921970    -1.22000
O1827       O  0.72531105  0.35525757  0.54587846    -0.84200
O1828       O  0.66853892  0.28574912  0.53304812    -0.81300
C1829       C  0.64303531  0.28116903  0.55195513     0.99200
O1830       O  0.62558322  0.29651506  0.54554685    -0.81300
O1831       O  0.61295977  0.34979014  0.52529052    -0.84000
C1832       C  0.63145074  0.37596992  0.54515591     1.03700
O1833       O  0.66551048  0.39202662  0.54536088    -0.76700
O1834       O  0.73580086  0.40834716  0.52995858    -0.76900
C1835       C  0.74446476  0.38944614  0.54707422     1.03700
O1836       O  0.74032643  0.36823728  0.47646717    -0.84200
O1837       O  0.68196995  0.30149975  0.46217001    -0.81300
C1838       C  0.64954117  0.27681600  0.45785196     0.99200
O1839       O  0.62558226  0.27562881  0.47669490    -0.81300
O1840       O  0.62150912  0.33561644  0.45817162    -0.83900
C1841       C  0.62756900  0.36765300  0.45654622     1.03700
O1842       O  0.65048237  0.39216161  0.47603448    -0.76800
O1843       O  0.71709118  0.40124698  0.46174168    -0.76900
C1844       C  0.74041068  0.39225455  0.45839108     1.03700
Cr1845     Cr  0.70156855  0.32893464  0.50431757     1.93700
Cr1846     Cr  0.62527480  0.31660258  0.50152153     1.93200
Cr1847     Cr  0.69072198  0.39454204  0.50344645     1.39100
O1848       O  0.67272816  0.34678173  0.50301367    -1.22000
C1849       C  0.96476758  0.99041365  0.75068114     0.03400
C1850       C  0.97121773  0.46213613  0.75617150     0.03400
C1851       C  0.50651144  0.46876511  0.75575118     0.03400
C1852       C  0.53807207  0.99908981  0.74745910     0.03400
C1853       C  0.53422593  0.03213535  0.74783835     0.03400
C1854       C  0.49736043  0.02636325  0.74952780     0.03400
N1855       N  0.57492374  0.51344459  0.75607345    -0.02400
C1856       C  0.59453132  0.52255188  0.78568995     0.00200
C1857       C  0.62858488  0.55259630  0.78154745    -0.22700
C1858       C  0.63363093  0.03355730  0.73180840    -0.22900
C1859       C  0.59836064  0.01485577  0.72017849     0.00100
H1860       H  0.65051744  0.56379156  0.79959913     0.13900
H1861       H  0.65802150  0.04457216  0.71724100     0.13900
N1862       N  0.92689633  0.98348653  0.74815889    -0.02400
C1863       C  0.90347984  0.97365706  0.77521995     0.00200
C1864       C  0.87058574  0.94339390  0.76754433    -0.22700
C1865       C  0.87452577  0.42546841  0.76164860    -0.22900
C1866       C  0.89841110  0.45093172  0.73994345     0.00100
H1867       H  0.84658283  0.93187364  0.78269207     0.13900
H1868       H  0.85237789  0.39859330  0.75624142     0.13900
N1869       N  0.99101564  0.05950771  0.75055020    -0.02400
C1870       C  0.96633213  0.05982879  0.72893726     0.00200
C1871       C  0.94109402  0.06339382  0.74689386    -0.22700
C1872       C  0.45410060  0.06706744  0.78127401    -0.22900
C1873       C  0.48694731  0.06951349  0.78091804     0.00100
H1874       H  0.92253131  0.07069033  0.73702948     0.13900
H1875       H  0.44444412  0.07787697  0.80033274     0.13900
N1876       N  0.56570142  0.07090824  0.74274358    -0.02400
C1877       C  0.60193898  0.08228989  0.74753118     0.00200
C1878       C  0.61944551  0.09078510  0.71707652    -0.22700
C1879       C  0.59654119  0.08975494  0.69432042    -0.22900
C1880       C  0.56737558  0.08549129  0.71169064     0.00100
H1881       H  0.64714895  0.10036333  0.71104726     0.13900
H1882       H  0.60525922  0.10167347  0.66994208     0.13900
N1883       N  0.51277284  0.43720176  0.75599712    -0.02400
C1884       C  0.53392174  0.43451893  0.73166632     0.00200
C1885       C  0.55980730  0.42902958  0.74537740    -0.22700
C1886       C  0.05556017  0.42512306  0.77487937    -0.22900
C1887       C  0.02516444  0.42641702  0.78185296     0.00100
H1888       H  0.57847089  0.42388674  0.73205754     0.13900
H1889       H  0.06789663  0.41437914  0.79087680     0.13900
N1890       N  0.94184361  0.42369348  0.75971815    -0.02400
C1891       C  0.93556786  0.40544601  0.78948289     0.00200
C1892       C  0.93107775  0.37166764  0.78367801    -0.22700
C1893       C  0.93179251  0.36702448  0.75077262    -0.22900
C1894       C  0.93626499  0.39780042  0.73611972     0.00100
H1895       H  0.92105845  0.34966476  0.80123255     0.13900
H1896       H  0.92197589  0.34079487  0.73913664     0.13900
C1897       C  0.60398124  0.18500310  0.69424873    -0.13300
C1898       C  0.58851978  0.18115559  0.66275498     0.17100
C1899       C  0.55916672  0.14688372  0.65327667     0.03400
C1900       C  0.54919602  0.11661779  0.67324052    -0.11800
C1901       C  0.56583595  0.11898956  0.70397177    -0.02800
C1902       C  0.59344144  0.15472006  0.71481729     0.02700
C1903       C  0.60743734  0.20994630  0.63709059     0.09500
N1904       N  0.54140054  0.14193378  0.62184195     0.65900
H1905       H  0.53183269  0.09009801  0.66233874     0.18800
N1906       N  0.61656342  0.16034283  0.74256790     0.76300
H1907       H  0.62725786  0.21097004  0.70146920     0.10300
C1908       C  0.60887821  0.24345609  0.63839509     0.04000
C1909       C  0.62077534  0.26633141  0.61056394    -0.04700
C1910       C  0.63273145  0.25717518  0.58156873    -0.23100
C1911       C  0.63350978  0.22476639  0.58123835     0.13200
C1912       C  0.62084802  0.20158437  0.60869081    -0.12300
N1913       N  0.59760693  0.25425587  0.66739853     0.64900
H1914       H  0.62071601  0.29150009  0.61165445     0.12800
N1915       N  0.64444044  0.21357424  0.55227203     0.61500
H1916       H  0.62008312  0.17599962  0.60729479     0.08900
O1917       O  0.61286843  0.17464318  0.76852552    -0.39900
O1918       O  0.64746181  0.16535526  0.73680169    -0.39100
O1919       O  0.53020984  0.11295360  0.60517783    -0.39100
O1920       O  0.53576438  0.16610741  0.61118503    -0.36800
O1921       O  0.67542638  0.21754553  0.55135465    -0.37700
O1922       O  0.62133407  0.19452007  0.53019251    -0.33900
O1923       O  0.61927876  0.26863104  0.69160537    -0.35300
O1924       O  0.56983994  0.25674946  0.66603545    -0.39600
C1925       C  0.53017667  0.38274968  0.65555942    -0.13300
C1926       C  0.55130797  0.41179399  0.63525940     0.17100
C1927       C  0.55302557  0.44492487  0.64131088     0.03400
C1928       C  0.53886458  0.44956328  0.67139747    -0.11800
C1929       C  0.52454764  0.42267872  0.69577728    -0.02800
C1930       C  0.51709055  0.38761944  0.68546438     0.02700
C1931       C  0.57417591  0.40689418  0.61118988     0.09500
N1932       N  0.56912105  0.47376163  0.61770797     0.65900
H1933       H  0.54170753  0.47501428  0.67728854     0.18800
N1934       N  0.50029217  0.35681112  0.70613947     0.76300
H1935       H  0.52668345  0.35640496  0.64971441     0.10300
C1936       C  0.60255106  0.40264817  0.62294898     0.04000
C1937       C  0.62198022  0.39412358  0.60085722    -0.04700
C1938       C  0.61253789  0.38808836  0.56718344    -0.23100
C1939       C  0.58363616  0.39161557  0.55538341     0.13200
C1940       C  0.56495441  0.40140262  0.57741032    -0.12300
N1941       N  0.61088348  0.40547273  0.65762058     0.64900
H1942       H  0.64357522  0.39078131  0.61028209     0.12800
N1943       N  0.57290655  0.38524052  0.52115801     0.61500
H1944       H  0.54248622  0.40351067  0.56838644     0.08900
O1945       O  0.46696845  0.33516297  0.70140651    -0.39900
O1946       O  0.00883875  0.33549659  0.70670540    -0.39100
O1947       O  0.59772168  0.48108416  0.60286947    -0.39100
O1948       O  0.55328133  0.49040500  0.60986336    -0.36800
O1949       O  0.54715648  0.35445714  0.51194054    -0.37700
O1950       O  0.58404957  0.41184313  0.50188598    -0.33900
O1951       O  0.60016784  0.37707407  0.67437007    -0.35300
O1952       O  0.63295525  0.43601956  0.67036601    -0.39600
C1953       C  0.83631781  0.42216603  0.66379719    -0.13300
C1954       C  0.86030079  0.43768693  0.63782353     0.17100
C1955       C  0.89777300  0.45798890  0.64475892     0.03400
C1956       C  0.91030597  0.46255029  0.67810391    -0.11800
C1957       C  0.88576277  0.44803144  0.70457971    -0.02800
C1958       C  0.84784539  0.42863121  0.69658595     0.02700
C1959       C  0.84281065  0.43423507  0.60513877     0.09500
N1960       N  0.92316102  0.47390267  0.61848021     0.65900
H1961       H  0.93321068  0.94435642  0.67069606     0.18800
N1962       N  0.82038345  0.42187356  0.72025046     0.76300
H1963       H  0.80747100  0.40774943  0.65868453     0.10300
C1964       C  0.82889747  0.40134768  0.58736219     0.04000
C1965       C  0.79730151  0.38778996  0.56839448    -0.04700
C1966       C  0.77905858  0.40680608  0.56608004    -0.23100
C1967       C  0.79520259  0.44189838  0.58062107     0.13200
C1968       C  0.82676426  0.45521391  0.60013541    -0.12300
N1969       N  0.84552200  0.38027319  0.58986127     0.64900
H1970       H  0.78655162  0.36167077  0.55594712     0.12800
N1971       N  0.77818055  0.46279036  0.57850191     0.61500
H1972       H  0.83649699  0.48021628  0.61429468     0.08900
O1973       O  0.79908875  0.38962416  0.72924734    -0.39900
O1974       O  0.80851525  0.44320153  0.72023786    -0.39100
O1975       O  0.94025713  0.93654938  0.60288086    -0.39100
O1976       O  0.92702534  0.45374402  0.59804818    -0.36800
O1977       O  0.75290801  0.45648767  0.59806838    -0.37700
O1978       O  0.79192728  0.49085936  0.56083721    -0.33900
O1979       O  0.83295051  0.35406158  0.60972885    -0.35300
O1980       O  0.86541382  0.38158129  0.56644148    -0.39600
C1981       C  0.95321073  0.07486227  0.63927749    -0.13300
C1982       C  0.95490642  0.10822035  0.64259894     0.17100
C1983       C  0.97102142  0.12937936  0.67147075     0.03400
C1984       C  0.98187605  0.11539800  0.69737682    -0.11800
C1985       C  0.97528666  0.07957244  0.69627827    -0.02800
C1986       C  0.96466734  0.06095511  0.66513306     0.02700
C1987       C  0.93641964  0.11841620  0.61731993     0.09500
N1988       N  0.97231378  0.16297919  0.67687862     0.65900
H1989       H  0.48508431  0.12762969  0.72469616     0.18800
N1990       N  0.96830386  0.03013654  0.65827843     0.76300
H1991       H  0.94247883  0.05940841  0.61635181     0.10300
C1992       C  0.95510003  0.14510787  0.59295066     0.04000
C1993       C  0.93577996  0.15273234  0.56957636    -0.04700
C1994       C  0.89784999  0.13419159  0.56950707    -0.23100
C1995       C  0.87924274  0.10718235  0.59379130     0.13200
C1996       C  0.89856672  0.09964399  0.61718122    -0.12300
N1997       N  0.99356876  0.16444487  0.59103140     0.64900
H1998       H  0.95076693  0.17331490  0.55117316     0.12800
N1999       N  0.84070709  0.08707707  0.59524634     0.61500
H2000       H  0.88380924  0.07884994  0.63549952     0.08900
O2001       O  0.98144514  0.01918696  0.67992616    -0.39900
O2002       O  0.96481836  0.01811410  0.62886606    -0.39100
O2003       O  0.45805763  0.16953087  0.70354810    -0.39100
O2004       O  0.00140494  0.19064778  0.68663016    -0.36800
O2005       O  0.82309594  0.05637561  0.58101448    -0.37700
O2006       O  0.82486561  0.09705004  0.61509655    -0.33900
O2007       O  0.00828073  0.16467344  0.56391244    -0.35300
O2008       O  0.01192833  0.18827278  0.61281048    -0.39600
C2009       C  0.70012579  0.08969445  0.61831003    -0.13300
C2010       C  0.67509855  0.05341597  0.60903418     0.17100
C2011       C  0.68098876  0.03949725  0.57942047     0.03400
C2012       C  0.71140596  0.06143481  0.56016284    -0.11800
C2013       C  0.73636248  0.09779608  0.56905883    -0.02800
C2014       C  0.73048434  0.11191822  0.59863588     0.02700
C2015       C  0.64371993  0.03084347  0.63109631     0.09500
N2016       N  0.65508839  0.00416606  0.56693364     0.65900
H2017       H  0.71464747  0.05008178  0.53718727     0.18800
N2018       N  0.75553435  0.14825591  0.60957792     0.76300
H2019       H  0.69617326  0.10074870  0.64113873     0.10300
C2020       C  0.64219623  0.00341688  0.65113359     0.04000
C2021       C  0.61607938  0.98784292  0.67622483    -0.04700
C2022       C  0.59420143  0.00242903  0.68444371    -0.23100
C2023       C  0.58979703  0.02256514  0.65909931     0.13200
C2024       C  0.61593772  0.03835165  0.63384697    -0.12300
N2025       N  0.66988272  0.99476059  0.64941115     0.64900
H2026       H  0.61859980  0.97037341  0.69389391     0.12800
N2027       N  0.57988796  0.54785452  0.66450984     0.61500
H2028       H  0.61486858  0.05680221  0.61639697     0.08900
O2029       O  0.78129780  0.15437565  0.62872230    -0.39900
O2030       O  0.74882228  0.17307802  0.60435395    -0.39100
O2031       O  0.62915388  0.00065997  0.54949338    -0.39100
O2032       O  0.66390768  0.98048826  0.56430253    -0.36800
O2033       O  0.55035885  0.53171579  0.67980929    -0.37700
O2034       O  0.58340942  0.56859431  0.64097020    -0.33900
O2035       O  0.69720531  0.01115243  0.66827410    -0.35300
O2036       O  0.66452717  0.96726063  0.63296694    -0.39600
C2037       C  0.89480382  0.32986541  0.58251749    -0.13300
C2038       C  0.89474316  0.32268928  0.61646879     0.17100
C2039       C  0.88368526  0.28680732  0.62608373     0.03400
C2040       C  0.87255830  0.25916036  0.60209226    -0.11800
C2041       C  0.87081746  0.26600468  0.56846511    -0.02800
C2042       C  0.88188734  0.30170391  0.55858855     0.02700
C2043       C  0.90314611  0.35140177  0.64217670     0.09500
N2044       N  0.88419330  0.27806132  0.66019282     0.65900
H2045       H  0.86462537  0.23196435  0.60987223     0.18800
N2046       N  0.88046957  0.30979717  0.52440793     0.76300
H2047       H  0.90436680  0.35729191  0.57464518     0.10300
C2048       C  0.93677793  0.38438935  0.64542928     0.04000
C2049       C  0.94461114  0.40550898  0.67497445    -0.04700
C2050       C  0.92070219  0.39292483  0.70187831    -0.23100
C2051       C  0.88492911  0.36339728  0.69553568     0.13200
C2052       C  0.87663841  0.34392358  0.66564876    -0.12300
N2053       N  0.96393263  0.39563067  0.62039225     0.64900
H2054       H  0.97098297  0.42945074  0.67850067     0.12800
N2055       N  0.85779650  0.34874106  0.72060202     0.61500
H2056       H  0.84987088  0.32016658  0.66229373     0.08900
O2057       O  0.90928355  0.33108168  0.50939233    -0.39900
O2058       O  0.85048880  0.30097741  0.51117524    -0.39100
O2059       O  0.85502475  0.26251041  0.67614732    -0.39100
O2060       O  0.91110507  0.27739469  0.67137269    -0.36800
O2061       O  0.85604269  0.32436905  0.73910539    -0.37700
O2062       O  0.82895947  0.34842220  0.71497794    -0.33900
O2063       O  0.98248422  0.42866915  0.61258745    -0.35300
O2064       O  0.97083679  0.37315381  0.60721437    -0.39600
C2065       C  0.58986839  0.41695659  0.40790385    -0.13300
C2066       C  0.55744484  0.38754120  0.39556317     0.17100
C2067       C  0.54824133  0.35183029  0.40377517     0.03400
C2068       C  0.57177105  0.34624602  0.42304799    -0.11800
C2069       C  0.60488896  0.37549124  0.43446873    -0.02800
C2070       C  0.61371999  0.41131791  0.42700919     0.02700
C2071       C  0.53838250  0.39385367  0.36816947     0.09500
N2072       N  0.51545969  0.32070534  0.39204637     0.65900
H2073       H  0.56382565  0.31860273  0.42912628     0.18800
N2074       N  0.64767853  0.44216977  0.43681078     0.76300
H2075       H  0.59793173  0.44435719  0.40070819     0.10300
C2076       C  0.51970928  0.41246777  0.37170976     0.04000
C2077       C  0.50244606  0.41675835  0.34365525    -0.04700
C2078       C  0.50165770  0.40152159  0.31241694    -0.23100
C2079       C  0.51663838  0.37856219  0.31144075     0.13200
C2080       C  0.53773399  0.37858745  0.33757084    -0.12300
N2081       N  0.51376449  0.42238634  0.40402585     0.64900
H2082       H  0.48778242  0.43029068  0.34642521     0.12800
N2083       N  0.50884607  0.35225787  0.28590806     0.61500
H2084       H  0.55110455  0.36324684  0.33480623     0.08900
O2085       O  0.64856974  0.46661546  0.45514371    -0.39900
O2086       O  0.67620087  0.44779405  0.42291883    -0.39100
O2087       O  0.51663635  0.30248241  0.36781031    -0.39100
O2088       O  0.48877838  0.30589919  0.41127455    -0.36800
O2089       O  0.53535813  0.35352829  0.27154867    -0.37700
O2090       O  0.48098712  0.32132182  0.28962968    -0.33900
O2091       O  0.53875739  0.44990131  0.41900343    -0.35300
O2092       O  0.48578060  0.40032119  0.41971143    -0.39600
C2093       C  0.90593285  0.36922630  0.36294451    -0.13300
C2094       C  0.88348827  0.33465315  0.34913897     0.17100
C2095       C  0.86871865  0.33183033  0.31734841     0.10200
C2096       C  0.87896677  0.36352446  0.29939189    -0.11800
C2097       C  0.90322158  0.39871237  0.31223737    -0.02800
C2098       C  0.91329770  0.40074730  0.34621384     0.02700
C2099       C  0.87287164  0.30282327  0.37065986     0.09500
N2100       N  0.84425488  0.29719534  0.30252856     0.65900
H2101       H  0.86835307  0.36077534  0.27482832     0.18800
N2102       N  0.92128327  0.43095182  0.36703303     0.76300
H2103       H  0.91417076  0.37164685  0.38878856     0.10300
C2104       C  0.89947008  0.29798416  0.38563957     0.04000
C2105       C  0.89065137  0.27367739  0.41174981    -0.04700
C2106       C  0.85508963  0.25304910  0.42322699    -0.23100
C2107       C  0.82785753  0.25619933  0.40674207     0.13200
C2108       C  0.83697764  0.28115924  0.38089823    -0.12300
N2109       N  0.93593407  0.31836671  0.37491096     0.64900
H2110       H  0.91193335  0.27110775  0.42316105     0.12800
N2111       N  0.79103634  0.23529738  0.41662145     0.61500
H2112       H  0.81620218  0.28485109  0.36992818     0.08900
O2113       O  0.89612330  0.42669717  0.38577734    -0.39900
O2114       O  0.95309566  0.45063980  0.37784491    -0.39100
O2115       O  0.81243649  0.28889227  0.29538195    -0.39100
O2116       O  0.85597313  0.27756299  0.29182702    -0.36800
O2117       O  0.77900226  0.24819520  0.43773592    -0.37700
O2118       O  0.76939268  0.20708851  0.40018224    -0.33900
O2119       O  0.95931334  0.34375891  0.39309652    -0.35300
O2120       O  0.94571773  0.30692515  0.35057591    -0.39600
C2121       C  0.97686767  0.14343305  0.32121747    -0.13300
C2122       C  0.97053812  0.13046426  0.35362480     0.17100
C2123       C  0.98753958  0.11179094  0.36475140     0.03400
C2124       C  0.00461355  0.10078889  0.34126638    -0.11800
C2125       C  0.00870685  0.11143274  0.30768652    -0.02800
C2126       C  0.99884538  0.13752114  0.29966667     0.02700
C2127       C  0.94596591  0.13610223  0.37562350     0.09500
N2128       N  0.99025216  0.10690881  0.39990000     0.65900
H2129       H  0.01708924  0.08606984  0.34966674     0.18800
N2130       N  0.01507309  0.16249718  0.27304920     0.76300
H2131       H  0.96605236  0.15977247  0.31292356     0.10300
C2132       C  0.95264103  0.17098282  0.38448846     0.04000
C2133       C  0.93118160  0.17454906  0.40853389    -0.04700
C2134       C  0.90213177  0.14402855  0.42361942    -0.23100
C2135       C  0.89403840  0.10912795  0.41292562     0.13200
C2136       C  0.91609956  0.10553460  0.38955965    -0.12300
N2137       N  0.98168636  0.20324578  0.37030560     0.64900
H2138       H  0.93772237  0.20168614  0.41564395     0.12800
N2139       N  0.86258592  0.07700892  0.42417842     0.61500
H2140       H  0.90991806  0.07853845  0.38227101     0.08900
O2141       O  0.99510180  0.16856598  0.25467148    -0.39900
O2142       O  0.04738781  0.18786910  0.27727102    -0.39100
O2143       O  0.99829738  0.08435099  0.41000492    -0.39100
O2144       O  0.99020781  0.12895305  0.42084142    -0.36800
O2145       O  0.86536448  0.05885371  0.44719368    -0.37700
O2146       O  0.83452833  0.06256700  0.40617028    -0.33900
O2147       O  0.97624172  0.21458959  0.34340489    -0.35300
O2148       O  0.00746528  0.22536343  0.38887104    -0.39600
C2149       C  0.63396112  0.17335088  0.32801065    -0.13300
C2150       C  0.61698507  0.16335234  0.35890145     0.17100
C2151       C  0.59455769  0.12571697  0.36573810     0.03400
C2152       C  0.58629232  0.10004993  0.33963423    -0.11800
C2153       C  0.60222790  0.11006532  0.30820226    -0.02800
C2154       C  0.62891626  0.14727689  0.30394067     0.02700
C2155       C  0.62533356  0.19287016  0.38377712     0.09500
N2156       N  0.58332627  0.11262619  0.39917919     0.65900
H2157       H  0.56879396  0.07160443  0.34451168     0.18800
N2158       N  0.65380562  0.15893577  0.27710883     0.76300
H2159       H  0.65292786  0.20176942  0.32308143     0.10300
C2160       C  0.66055184  0.21532143  0.39676200     0.04000
C2161       C  0.66766672  0.24250021  0.42033383    -0.04700
C2162       C  0.64036779  0.24842566  0.43153849    -0.23100
C2163       C  0.60517601  0.22656261  0.41792039     0.13200
C2164       C  0.59794300  0.19893474  0.39446571    -0.12300
N2165       N  0.68911009  0.20957195  0.38771862     0.64900
H2166       H  0.69481836  0.25864107  0.43042297     0.12800
N2167       N  0.57688142  0.23293089  0.42664875     0.61500
H2168       H  0.57090543  0.18237950  0.38420606     0.08900
O2169       O  0.68542489  0.16589735  0.28313891    -0.39900
O2170       O  0.64871668  0.17355243  0.25237776    -0.39100
O2171       O  0.56900114  0.07916247  0.40502530    -0.39100
O2172       O  0.59248611  0.13422576  0.42371390    -0.36800
O2173       O  0.57990701  0.26305882  0.42020284    -0.37700
O2174       O  0.54747188  0.20737242  0.43772733    -0.33900
O2175       O  0.70983645  0.22759281  0.36431110    -0.35300
O2176       O  0.69905518  0.19430533  0.40811089    -0.39600
C2177       C  0.69819998  0.04294066  0.39485217    -0.13300
C2178       C  0.68075684  0.06004837  0.38187098     0.17100
C2179       C  0.69135489  0.09534892  0.39295909     0.03400
C2180       C  0.71850051  0.11261431  0.41717526    -0.11800
C2181       C  0.73627774  0.09565556  0.42987709    -0.02800
C2182       C  0.72587574  0.06042680  0.41851262     0.02700
C2183       C  0.65221508  0.04072265  0.35626597     0.09500
N2184       N  0.67549347  0.11437417  0.37925291     0.65900
H2185       H  0.72625688  0.13974997  0.42554959     0.18800
N2186       N  0.74250263  0.04167289  0.43126352     0.76300
H2187       H  0.69010718  0.01571052  0.38661295     0.10300
C2188       C  0.65987621  0.02859297  0.32677586     0.04000
C2189       C  0.63267084  0.00931023  0.30343497    -0.04700
C2190       C  0.59704280  0.00193116  0.30788164    -0.23100
C2191       C  0.58894283  0.01357892  0.33815567     0.13200
C2192       C  0.61691354  0.03294972  0.36184123    -0.12300
N2193       N  0.69567550  0.03694096  0.31949476     0.64900
H2194       H  0.63988380  0.00089593  0.28071574     0.12800
N2195       N  0.55398997  0.49602295  0.34360520     0.61500
H2196       H  0.61119932  0.04201443  0.38497095     0.08900
O2197       O  0.73470996  0.02829668  0.45996520    -0.39900
O2198       O  0.76020526  0.03347372  0.41200027    -0.39100
O2199       O  0.65366732  0.11854464  0.39657560    -0.39100
O2200       O  0.68936924  0.13378422  0.35399095    -0.36800
O2201       O  0.53062368  0.48990777  0.32174503    -0.37700
O2202       O  0.54792695  0.50131927  0.37316615    -0.33900
O2203       O  0.70294938  0.01205733  0.31993419    -0.35300
O2204       O  0.71785011  0.06720691  0.30697380    -0.39600
C2205       C  0.88924244  0.48480894  0.37050783    -0.13300
C2206       C  0.85258726  0.46864941  0.36206771     0.17100
C2207       C  0.84314053  0.47332585  0.32988016     0.03400
C2208       C  0.87019161  0.49165585  0.30641599    -0.11800
C2209       C  0.90671891  0.50306574  0.31332600    -0.02800
C2210       C  0.91632309  0.50010179  0.34613709     0.02700
C2211       C  0.82462807  0.44771940  0.38729464     0.09500
N2212       N  0.80654351  0.46136633  0.32114251     0.65900
H2213       H  0.86275120  0.49686858  0.28224037     0.18800
N2214       N  0.95148415  0.01537857  0.35726567     0.76300
H2215       H  0.89651572  0.48360901  0.39604046     0.10300
C2216       C  0.79862337  0.41031402  0.38299242     0.04000
C2217       C  0.77117032  0.39253004  0.40642296    -0.04700
C2218       C  0.76938058  0.41136133  0.43418684    -0.23100
C2219       C  0.79623270  0.44808054  0.43929633     0.13200
C2220       C  0.82387258  0.46570759  0.41616962    -0.12300
N2221       N  0.80133348  0.38935100  0.35662594     0.64900
H2222       H  0.75139128  0.36384335  0.40311324     0.12800
N2223       N  0.79652120  0.46733538  0.46854409     0.61500
H2224       H  0.84508160  0.49349619  0.42084580     0.08900
O2225       O  0.95844395  0.01826406  0.38800856    -0.39900
O2226       O  0.97556303  0.01944517  0.33708845    -0.39100
O2227       O  0.79139828  0.47688444  0.33406817    -0.39100
O2228       O  0.79179819  0.44018691  0.29654140    -0.36800
O2229       O  0.81392412  0.46771769  0.49391847    -0.37700
O2230       O  0.78492035  0.48882815  0.46712720    -0.33900
O2231       O  0.82316371  0.37838740  0.35985540    -0.35300
O2232       O  0.77592091  0.37369144  0.33564079    -0.39600
C2233       C  0.86925804  0.02876245  0.82251557    -0.13300
C2234       C  0.87988106  0.02792862  0.85493724     0.17100
C2235       C  0.89792657  0.00905971  0.86119762     0.03400
C2236       C  0.90948550  0.99694800  0.83395756    -0.11800
C2237       C  0.89978396  0.99774327  0.80093429    -0.02800
C2238       C  0.87618462  0.01157968  0.79631349     0.02700
C2239       C  0.87286375  0.04821249  0.88102873     0.09500
N2240       N  0.90381711  0.00124482  0.89458269     0.65900
H2241       H  0.92190515  0.48960307  0.85086719     0.18800
N2242       N  0.85549367  0.00538293  0.76676728     0.76300
H2243       H  0.85292938  0.04077061  0.81785941     0.10300
C2244       C  0.89132549  0.08650378  0.88089752     0.04000
C2245       C  0.88464252  0.10541287  0.90562365    -0.04700
C2246       C  0.85835640  0.08688286  0.93002621    -0.23100
C2247       C  0.83793254  0.04824886  0.92857603     0.13200
C2248       C  0.84539970  0.02952741  0.90419858    -0.12300
N2249       N  0.91552510  0.10649341  0.85467385     0.64900
H2250       H  0.89962945  0.13485363  0.90516526     0.12800
N2251       N  0.80908854  0.02739015  0.95109582     0.61500
H2252       H  0.82895474  0.00014006  0.90289198     0.08900
O2253       O  0.85673267  0.03252514  0.75356112    -0.39900
O2254       O  0.82654123  0.97501860  0.76374487    -0.39100
O2255       O  0.86717722  0.48189445  0.91061460    -0.39100
O2256       O  0.93213611  0.00106230  0.90181849    -0.36800
O2257       O  0.81168179  0.00649670  0.97120704    -0.37700
O2258       O  0.77848996  0.02336856  0.94559236    -0.33900
O2259       O  0.90380860  0.11456376  0.82945098    -0.35300
O2260       O  0.94909479  0.12128284  0.85915704    -0.39600
C2261       C  0.87299964  0.04932269  0.09327346    -0.13300
C2262       C  0.85909544  0.04691659  0.12538736     0.17100
C2263       C  0.83558407  0.06035023  0.13021263     0.03400
C2264       C  0.82848828  0.07742497  0.10388707    -0.11800
C2265       C  0.84617400  0.08369794  0.07319822    -0.02800
C2266       C  0.86775252  0.06830645  0.06780921     0.02700
C2267       C  0.87935632  0.04239753  0.15359113     0.09500
N2268       N  0.82129236  0.06008362  0.16225051     0.65900
H2269       H  0.81138608  0.08853687  0.10843900     0.18800
N2270       N  0.88597419  0.07306726  0.03702794     0.76300
H2271       H  0.89134243  0.03964150  0.08891165     0.10300
C2272       C  0.86555690  0.01412591  0.17713452     0.04000
C2273       C  0.88877920  0.01383022  0.20204621    -0.04700
C2274       C  0.92537548  0.04205661  0.20544549    -0.23100
C2275       C  0.93815135  0.07113623  0.18198037     0.13200
C2276       C  0.91563585  0.06930821  0.15602526    -0.12300
N2277       N  0.82802151  0.98681987  0.17764700     0.64900
H2278       H  0.87757455  0.48999550  0.21604120     0.12800
N2279       N  0.97198514  0.10503652  0.18555603     0.61500
H2280       H  0.92582870  0.09137901  0.13848596     0.08900
O2281       O  0.87294551  0.04763388  0.01570144    -0.39900
O2282       O  0.91815170  0.09899419  0.03416708    -0.39100
O2283       O  0.84198402  0.08127676  0.18484094    -0.39100
O2284       O  0.78753971  0.04464399  0.16576083    -0.36800
O2285       O  0.98565275  0.11695810  0.21377221    -0.37700
O2286       O  0.98438236  0.12674487  0.16152640    -0.33900
O2287       O  0.82187970  0.45250825  0.16375544    -0.35300
O2288       O  0.80639787  0.99407018  0.19161150    -0.39600
C2289       C  0.63316555  0.09614393  0.83995153    -0.13300
C2290       C  0.66968136  0.10749580  0.83686477     0.17100
C2291       C  0.68480453  0.11546902  0.80508736     0.03400
C2292       C  0.66299487  0.10968674  0.77729971    -0.11800
C2293       C  0.62500366  0.09469708  0.77950388    -0.02800
C2294       C  0.61161310  0.09188481  0.81190021     0.02700
C2295       C  0.69238505  0.11258917  0.86667671     0.09500
N2296       N  0.72248383  0.12939988  0.80041921     0.65900
H2297       H  0.67690333  0.11597838  0.75402352     0.18800
N2298       N  0.58187421  0.09614083  0.81745844     0.76300
H2299       H  0.62176921  0.09283515  0.86450848     0.10300
C2300       C  0.69654350  0.13641869  0.89299811     0.04000
C2301       C  0.72080457  0.14289008  0.91908443    -0.04700
C2302       C  0.74154087  0.12623322  0.91955107    -0.23100
C2303       C  0.73658661  0.10164553  0.89354629     0.13200
C2304       C  0.71180845  0.09468642  0.86784058    -0.12300
N2305       N  0.67754034  0.15547207  0.89294104     0.64900
H2306       H  0.72377769  0.16157401  0.93885740     0.12800
N2307       N  0.75790904  0.08507761  0.89173972     0.61500
H2308       H  0.70847796  0.07587827  0.84805401     0.08900
O2309       O  0.58886672  0.12841077  0.81782003    -0.39900
O2310       O  0.55746816  0.07390567  0.83625177    -0.39100
O2311       O  0.73268280  0.10891879  0.78855472    -0.39100
O2312       O  0.74443522  0.16324758  0.80197893    -0.36800
O2313       O  0.78891853  0.10222844  0.87906440    -0.37700
O2314       O  0.74368082  0.05165881  0.89759156    -0.33900
O2315       O  0.65138856  0.14589088  0.91239746    -0.35300
O2316       O  0.69098355  0.18556846  0.87843157    -0.39600
C2317       C  0.96242532  0.30248150  0.90283898    -0.13300
C2318       C  0.94465182  0.31652089  0.88469496     0.17100
C2319       C  0.90682568  0.29905702  0.88691691     0.03400
C2320       C  0.88763941  0.26912196  0.90783055    -0.11800
C2321       C  0.90522278  0.25510518  0.92654258    -0.02800
C2322       C  0.94321585  0.27205958  0.92344540     0.02700
C2323       C  0.96486307  0.34529050  0.85949270     0.09500
N2324       N  0.88729076  0.31060628  0.86705109     0.65900
H2325       H  0.85861829  0.25677510  0.90928633     0.18800
N2326       N  0.96260956  0.25795228  0.93990810     0.76300
H2327       H  0.99131715  0.31457987  0.90019260     0.10300
C2328       C  0.97663375  0.38217121  0.86461029     0.04000
C2329       C  0.99405852  0.40736653  0.83880623    -0.04700
C2330       C  0.00145461  0.39756094  0.80751448    -0.23100
C2331       C  0.99130614  0.36007075  0.80414210     0.13200
C2332       C  0.97278393  0.33500489  0.82946424    -0.12300
N2333       N  0.97382892  0.39504069  0.89668294     0.64900
H2334       H  0.00146524  0.43449964  0.84387947     0.12800
N2335       N  0.99797672  0.34548380  0.77501049     0.61500
H2336       H  0.96469420  0.30676452  0.82563816     0.08900
O2337       O  0.98257309  0.27480704  0.96461311    -0.39900
O2338       O  0.96425657  0.23210974  0.92668983    -0.39100
O2339       O  0.87230903  0.29371845  0.84038327    -0.39100
O2340       O  0.87886649  0.33226968  0.87931999    -0.36800
O2341       O  0.97123570  0.31767170  0.76198239    -0.37700
O2342       O  0.02873514  0.34922135  0.77194598    -0.33900
O2343       O  0.00161940  0.41245884  0.91483542    -0.35300
O2344       O  0.94378218  0.38907267  0.90701820    -0.39600
C2345       C  0.63886339  0.08577110  0.14617758    -0.13300
C2346       C  0.67521676  0.11221705  0.15159971     0.17100
C2347       C  0.68651742  0.12793775  0.18323943     0.03400
C2348       C  0.66214486  0.11480414  0.20935031    -0.11800
C2349       C  0.62614924  0.08514791  0.20552954    -0.02800
C2350       C  0.61387550  0.07258466  0.17247233     0.02700
C2351       C  0.70092899  0.12318392  0.12385950     0.09500
N2352       N  0.72295536  0.15663974  0.18953076     0.65900
H2353       H  0.67256200  0.12621808  0.23364753     0.18800
N2354       N  0.57638055  0.04890019  0.16464343     0.76300
H2355       H  0.63008708  0.07521256  0.12115873     0.10300
C2356       C  0.72634551  0.11202175  0.12199217     0.04000
C2357       C  0.74844822  0.12086165  0.09423161    -0.04700
C2358       C  0.74615829  0.14117750  0.06848725    -0.23100
C2359       C  0.72164496  0.15329277  0.07059661     0.13200
C2360       C  0.69897529  0.14387804  0.09812364    -0.12300
N2361       N  0.72878461  0.09000295  0.14697130     0.64900
H2362       H  0.76738115  0.11153166  0.09263841     0.12800
N2363       N  0.71835116  0.17368135  0.04444716     0.61500
H2364       H  0.67928018  0.15209678  0.09903018     0.08900
O2365       O  0.56570982  0.04145139  0.13476901    -0.39900
O2366       O  0.55329293  0.04047336  0.18695216    -0.39100
O2367       O  0.73492178  0.18691413  0.17567293    -0.39100
O2368       O  0.74100948  0.15380005  0.21274966    -0.36800
O2369       O  0.70106974  0.15748628  0.01830098    -0.37700
O2370       O  0.72653122  0.20602612  0.04996462    -0.33900
O2371       O  0.71785143  0.05725248  0.13991101    -0.35300
O2372       O  0.75134581  0.10525645  0.17040124    -0.39600
C2373       C  0.97322585  0.35047702  0.16066216    -0.13300
C2374       C  0.94468880  0.34485584  0.14048996     0.17100
C2375       C  0.92533292  0.36143260  0.15005527     0.03400
C2376       C  0.93441633  0.38259711  0.17933433    -0.11800
C2377       C  0.96056730  0.38541396  0.20187433    -0.02800
C2378       C  0.97826252  0.36609408  0.19256954     0.02700
C2379       C  0.93091000  0.31540179  0.11438361     0.09500
N2380       N  0.89208249  0.35110632  0.13421881     0.65900
H2381       H  0.91741608  0.39267249  0.18671813     0.18800
N2382       N  0.49006158  0.34893135  0.21442333     0.76300
H2383       H  0.98645819  0.33557774  0.15460980     0.10300
C2384       C  0.92713449  0.32184313  0.08074566     0.04000
C2385       C  0.91145433  0.29269106  0.05782421    -0.04700
C2386       C  0.90063675  0.25701324  0.06719531    -0.23100
C2387       C  0.90575619  0.25077802  0.10055601     0.13200
C2388       C  0.92048011  0.27975497  0.12376951    -0.12300
N2389       N  0.94082997  0.35798621  0.06908343     0.64900
H2390       H  0.90862440  0.29820822  0.03212116     0.12800
N2391       N  0.89454115  0.21498199  0.11160619     0.61500
H2392       H  0.92310002  0.27423423  0.14952619     0.08900
O2393       O  0.46507791  0.32087997  0.22799812    -0.39900
O2394       O  0.51906176  0.34957607  0.20883527    -0.39100
O2395       O  0.86328560  0.32769094  0.14797662    -0.39100
O2396       O  0.89124175  0.37059427  0.11146412    -0.36800
O2397       O  0.86198063  0.19342453  0.11911560    -0.37700
O2398       O  0.91774693  0.20618262  0.11702629    -0.33900
O2399       O  0.97383894  0.38153825  0.07317419    -0.35300
O2400       O  0.92204588  0.36446680  0.04950169    -0.39600
C2401       C  0.60876552  0.22092336  0.86209571    -0.13300
C2402       C  0.57095880  0.19892547  0.86414379     0.17100
C2403       C  0.55378408  0.20336446  0.89206373     0.03400
C2404       C  0.57426663  0.22747379  0.91782868    -0.11800
C2405       C  0.61219151  0.24860882  0.91666985    -0.02800
C2406       C  0.62935502  0.24590121  0.88776912     0.02700
C2407       C  0.55040609  0.16712265  0.84081934     0.09500
N2408       N  0.51529576  0.18328844  0.89474947     0.65900
H2409       H  0.56001523  0.22943418  0.93907817     0.18800
N2410       N  0.66749802  0.26844657  0.88384646     0.76300
H2411       H  0.62249865  0.21785495  0.84097885     0.10300
C2412       C  0.54983517  0.16918124  0.80559592     0.04000
C2413       C  0.53303630  0.13640359  0.78626022    -0.04700
C2414       C  0.51402299  0.10184194  0.80114046    -0.23100
C2415       C  0.51134051  0.10121694  0.83629751     0.13200
C2416       C  0.53133693  0.13297152  0.85524509    -0.12300
N2417       N  0.56369966  0.20359777  0.78932394     0.64900
H2418       H  0.53246421  0.13785316  0.75949247     0.12800
N2419       N  0.48742652  0.06882160  0.85370514     0.61500
H2420       H  0.53132300  0.13082872  0.88206436     0.08900
O2421       O  0.68008473  0.29702987  0.86701148    -0.39900
O2422       O  0.68778420  0.25671299  0.89197321    -0.39100
O2423       O  0.50053138  0.16138920  0.91833272    -0.39100
O2424       O  0.49695678  0.19269232  0.87780994    -0.36800
O2425       O  0.48864551  0.04047289  0.84889448    -0.37700
O2426       O  0.47125478  0.07103937  0.87884710    -0.33900
O2427       O  0.56884241  0.20595735  0.75834127    -0.35300
O2428       O  0.56570244  0.23032309  0.80472143    -0.39600
C2429       C  0.58615165  0.21036940  0.11651759    -0.13300
C2430       C  0.58451925  0.17779954  0.10757821     0.17100
C2431       C  0.59494816  0.17440344  0.07529225     0.03400
C2432       C  0.60834286  0.20375906  0.05327981    -0.11800
C2433       C  0.61122051  0.23696410  0.06243698    -0.02800
C2434       C  0.59888283  0.23958597  0.09424843     0.02700
C2435       C  0.57604959  0.14975166  0.13351108     0.09500
N2436       N  0.59288851  0.14155344  0.06475185     0.65900
H2437       H  0.61698273  0.20061127  0.02887148     0.18800
N2438       N  0.60078535  0.27230259  0.10499359     0.76300
H2439       H  0.57836937  0.21348304  0.14133743     0.10300
C2440       C  0.60281410  0.15451457  0.15616222     0.04000
C2441       C  0.59367536  0.13150859  0.18338414    -0.04700
C2442       C  0.55728265  0.10697569  0.19219236    -0.23100
C2443       C  0.53186320  0.09650288  0.16549120     0.13200
C2444       C  0.54131431  0.11898659  0.13691985    -0.12300
N2445       N  0.63833518  0.18588861  0.15474723     0.64900
H2446       H  0.61462881  0.13902816  0.20175965     0.12800
N2447       N  0.01741262  0.06941055  0.16580583     0.61500
H2448       H  0.52129291  0.11324948  0.11782419     0.08900
O2449       O  0.57388650  0.27590520  0.10085927    -0.39900
O2450       O  0.62704940  0.29508666  0.12277077    -0.39100
O2451       O  0.56691152  0.11912997  0.04650088    -0.39100
O2452       O  0.61958784  0.13770461  0.06914055    -0.36800
O2453       O  0.01058431  0.05595620  0.13675690    -0.37700
O2454       O  0.99721911  0.05030583  0.18898698    -0.33900
O2455       O  0.64578489  0.21388662  0.17157421    -0.35300
O2456       O  0.66354811  0.18340824  0.14201301    -0.39600
C2457       C  0.59061840  0.46549708  0.85995977    -0.13300
C2458       C  0.61550610  0.45577034  0.85068180     0.17100
C2459       C  0.63249952  0.46655821  0.81980969     0.03400
C2460       C  0.62401188  0.48667551  0.79859831    -0.11800
C2461       C  0.59790402  0.49586042  0.80707374    -0.02800
C2462       C  0.58203043  0.48564958  0.83872111     0.02700
C2463       C  0.62427034  0.43561683  0.87443714     0.09500
N2464       N  0.65788286  0.45671439  0.80941819     0.65900
H2465       H  0.63840824  0.49567677  0.77552487     0.18800
N2466       N  0.55563469  0.49382625  0.84873072     0.76300
H2467       H  0.57769414  0.45710710  0.88393491     0.10300
C2468       C  0.65545980  0.45382979  0.89443757     0.04000
C2469       C  0.66188138  0.43468457  0.91853680    -0.04700
C2470       C  0.63729922  0.39739084  0.92370302    -0.23100
C2471       C  0.60612722  0.37912937  0.90315825     0.13200
C2472       C  0.59988473  0.39842176  0.87881353    -0.12300
N2473       N  0.67994089  0.49214068  0.89164528     0.64900
H2474       H  0.68606442  0.44952797  0.93374885     0.12800
N2475       N  0.58016091  0.34138544  0.90707164     0.61500
H2476       H  0.57559628  0.38447316  0.86359054     0.08900
O2477       O  0.54821548  0.49361144  0.87910908    -0.39900
O2478       O  0.53366139  0.49160467  0.82702485    -0.39100
O2479       O  0.64657251  0.42575220  0.79650942    -0.39100
O2480       O  0.69087069  0.48085120  0.80729514    -0.36800
O2481       O  0.55280909  0.33188596  0.92488457    -0.37700
O2482       O  0.58105177  0.31829326  0.88813507    -0.33900
O2483       O  0.67337560  0.51391280  0.90678707    -0.35300
O2484       O  0.71085147  0.50380775  0.87956026    -0.39600
C2485       C  0.89599690  0.42088062  0.86928489    -0.13300
C2486       C  0.85953463  0.39416844  0.86506868     0.17100
C2487       C  0.84884456  0.37023502  0.83777896     0.03400
C2488       C  0.87425147  0.37473353  0.81424281    -0.11800
C2489       C  0.91067947  0.40370646  0.81627881    -0.02800
C2490       C  0.92166805  0.42624660  0.84506513     0.02700
C2491       C  0.83239047  0.39292305  0.88792797     0.09500
N2492       N  0.81209794  0.34163650  0.83328082     0.65900
H2493       H  0.86495281  0.35611129  0.79330348     0.18800
N2494       N  0.95745062  0.45671544  0.84877804     0.76300
H2495       H  0.90407267  0.43934930  0.89042450     0.10300
C2496       C  0.83078015  0.38201852  0.92091937     0.04000
C2497       C  0.80238281  0.37697602  0.94086813    -0.04700
C2498       C  0.77516541  0.38260236  0.92866197    -0.23100
C2499       C  0.77802118  0.39589537  0.89627442     0.13200
C2500       C  0.80647149  0.40064108  0.87601104    -0.12300
N2501       N  0.85632624  0.37352072  0.93384631     0.64900
H2502       H  0.80103430  0.36740698  0.96596887     0.12800
N2503       N  0.75141622  0.40269399  0.88305960     0.61500
H2504       H  0.80788330  0.40952961  0.85065429     0.08900
O2505       O  0.97152180  0.46659277  0.87738925    -0.39900
O2506       O  0.97049951  0.47894448  0.82541279    -0.39100
O2507       O  0.79366649  0.34288715  0.80952738    -0.39100
O2508       O  0.80011851  0.31266905  0.84943011    -0.36800
O2509       O  0.75566187  0.43389068  0.88641671    -0.37700
O2510       O  0.72783916  0.38016598  0.86292881    -0.33900
O2511       O  0.88561251  0.39856523  0.94634110    -0.35300
O2512       O  0.84634480  0.34084157  0.93955824    -0.39600
C2513       C  0.57218401  0.44518524  0.13774150    -0.13300
C2514       C  0.60615879  0.44935633  0.14331422     0.17100
C2515       C  0.62580843  0.46856033  0.17207893     0.03400
C2516       C  0.61004288  0.48088283  0.19509510    -0.11800
C2517       C  0.57294635  0.46914236  0.19317040    -0.02800
C2518       C  0.55455659  0.45327991  0.16267496     0.02700
C2519       C  0.61967288  0.43244322  0.11918815     0.09500
N2520       N  0.65908123  0.47083649  0.18099429     0.65900
H2521       H  0.62419382  0.49185125  0.21842643     0.18800
N2522       N  0.51794193  0.44426859  0.15675348     0.76300
H2523       H  0.55821426  0.43296361  0.11452633     0.10300
C2524       C  0.59692583  0.39640964  0.10741257     0.04000
C2525       C  0.60890882  0.38205277  0.08284364    -0.04700
C2526       C  0.64380931  0.40228271  0.06983007    -0.23100
C2527       C  0.66728167  0.43796722  0.08236375     0.13200
C2528       C  0.65493640  0.45261328  0.10672773    -0.12300
N2529       N  0.56195304  0.37333347  0.12111485     0.64900
H2530       H  0.59078070  0.35432741  0.07436911     0.12800
N2531       N  0.70297425  0.46041681  0.06968453     0.61500
H2532       H  0.67272763  0.48036667  0.11519448     0.08900
O2533       O  0.50299495  0.43190470  0.12878376    -0.39900
O2534       O  0.50161128  0.45215485  0.17792371    -0.39100
O2535       O  0.68441056  0.49958253  0.19420541    -0.39100
O2536       O  0.66055674  0.44227641  0.18167174    -0.36800
O2537       O  0.70720749  0.46941139  0.03952081    -0.37700
O2538       O  0.72930419  0.47688744  0.08965646    -0.33900
O2539       O  0.53443892  0.35958830  0.10236557    -0.35300
O2540       O  0.55941218  0.36102555  0.14994881    -0.39600
C2541       C  0.82528305  0.42098246  0.09605586    -0.13300
C2542       C  0.82969199  0.39412617  0.11112688     0.17100
C2543       C  0.80660633  0.35745364  0.09980603     0.03400
C2544       C  0.77919948  0.34874164  0.07648257    -0.11800
C2545       C  0.77365441  0.37521252  0.06301473    -0.02800
C2546       C  0.79789742  0.41207678  0.07232153     0.02700
C2547       C  0.85275226  0.40396458  0.14227228     0.09500
N2548       N  0.81065841  0.32815165  0.11037785     0.65900
H2549       H  0.76204373  0.32056349  0.06878223     0.18800
N2550       N  0.79418066  0.44083654  0.05935313     0.76300
H2551       H  0.84194048  0.44911701  0.10387895     0.10300
C2552       C  0.88702135  0.43646446  0.14695408     0.04000
C2553       C  0.90297141  0.44696648  0.17918117    -0.04700
C2554       C  0.88615039  0.42516299  0.20698671    -0.23100
C2555       C  0.85354806  0.39120679  0.20113114     0.13200
C2556       C  0.83706347  0.38224149  0.16990825    -0.12300
N2557       N  0.90585170  0.45923615  0.11949558     0.64900
H2558       H  0.92796551  0.47275567  0.18261842     0.12800
N2559       N  0.83586890  0.36481756  0.22648344     0.61500
H2560       H  0.81030592  0.35849613  0.16807888     0.08900
O2561       O  0.80936160  0.45546299  0.03240674    -0.39900
O2562       O  0.78324394  0.45677903  0.07812224    -0.39100
O2563       O  0.78893594  0.30655154  0.13161489    -0.39100
O2564       O  0.82419518  0.31605338  0.09002165    -0.36800
O2565       O  0.81069961  0.36456050  0.24249422    -0.37700
O2566       O  0.83565019  0.33542178  0.22372882    -0.33900
O2567       O  0.91442499  0.49211066  0.11998683    -0.35300
O2568       O  0.91990576  0.44864877  0.09822038    -0.39600
O2569       O  0.62474056  0.80471284  0.04354400    -0.84200
O2570       O  0.63113936  0.86972359  0.02582268    -0.81300
C2571       C  0.65575143  0.89598646  0.04286739     0.99200
O2572       O  0.68844629  0.90582436  0.03883995    -0.81300
O2573       O  0.74716870  0.89948169  0.02414855    -0.84000
C2574       C  0.74648223  0.87725356  0.04492542     1.03700
O2575       O  0.72106340  0.84431400  0.04392873    -0.76700
O2576       O  0.65627226  0.78080997  0.02813698    -0.76900
C2577       C  0.63303690  0.78083829  0.04704950     1.03700
O2578       O  0.61892982  0.78350523  0.97399105    -0.84200
O2579       O  0.62912227  0.84973766  0.95717121    -0.81300
C2580       C  0.64465059  0.88351961  0.95339605     0.99200
O2581       O  0.67249599  0.90485205  0.97036102    -0.81300
O2582       O  0.72806526  0.89230471  0.95472466    -0.83900
C2583       C  0.74619602  0.87686015  0.95469293     1.03700
O2584       O  0.74008743  0.85307033  0.97602912    -0.76800
O2585       O  0.67252699  0.79488052  0.95926839    -0.76900
C2586       C  0.63865489  0.77712515  0.95517842     1.03700
Cr2587     Cr  0.62983422  0.82854693  0.00015903     1.93700
Cr2588     Cr  0.70661143  0.89662738  0.99703822     1.93200
Cr2589     Cr  0.69596614  0.82050686  0.00174266     1.39100
O2590       O  0.67736140  0.84860949  0.99960940    -1.22000
O2591       O  0.84291063  0.71144997  0.95608024    -0.84200
O2592       O  0.77095365  0.66246022  0.97202243    -0.81300
C2593       C  0.76133557  0.63528747  0.95311852     0.99200
O2594       O  0.77507787  0.61584080  0.95659190    -0.81300
O2595       O  0.82341398  0.59588363  0.97541926    -0.84000
C2596       C  0.84971040  0.61339401  0.95616814     1.03700
O2597       O  0.87125231  0.64711510  0.96079885    -0.76700
O2598       O  0.89322277  0.71881140  0.97657472    -0.76900
C2599       C  0.87700841  0.72768373  0.95580567     1.03700
O2600       O  0.85881608  0.73052142  0.02459088    -0.84200
O2601       O  0.79007210  0.67683530  0.04058564    -0.81300
C2602       C  0.76359806  0.64508374  0.04449046     0.99200
O2603       O  0.75895744  0.61922912  0.02563362    -0.81300
O2604       O  0.81048314  0.60314152  0.04398244    -0.83900
C2605       C  0.84116620  0.60679428  0.04774360     1.03700
O2606       O  0.86737794  0.62950061  0.03013922    -0.76800
O2607       O  0.88187815  0.70020721  0.04616827    -0.76900
C2608       C  0.87801119  0.72750510  0.04652719     1.03700
Cr2609     Cr  0.81660770  0.69257303  0.99840043     1.93700
Cr2610     Cr  0.79470474  0.61233674  0.00044456     1.93200
Cr2611     Cr  0.87492332  0.67275443  0.00337429     1.39100
O2612       O  0.82871909  0.65911067  0.00091527    -1.22000
C2613       C  0.97099304  0.51017487  0.25682632     0.03400
C2614       C  0.96501905  0.97519826  0.26064668     0.03400
C2615       C  0.49616138  0.97040115  0.25626812     0.03400
C2616       C  0.52766764  0.48794828  0.25427305     0.03400
C2617       C  0.53790761  0.52632866  0.25457548     0.03400
C2618       C  0.51032260  0.53659040  0.25405198     0.03400
N2619       N  0.94249972  0.52035183  0.25921533    -0.02400
C2620       C  0.94077571  0.54539624  0.23856814     0.00200
C2621       C  0.93429292  0.56877202  0.25674991    -0.22700
C2622       C  0.93415180  0.06279406  0.28935793    -0.22900
C2623       C  0.93590901  0.03194708  0.29072212     0.00100
H2624       H  0.92679681  0.58749783  0.24722546     0.13900
H2625       H  0.92303613  0.07239207  0.30817201     0.13900
N2626       N  0.56183824  0.99114553  0.25354673    -0.02400
C2627       C  0.56259018  0.97047427  0.22756163     0.00200
C2628       C  0.56776843  0.94366904  0.23979658    -0.22700
C2629       C  0.56649546  0.43570281  0.26939609    -0.22900
C2630       C  0.56653730  0.46666852  0.27830817     0.00100
H2631       H  0.57821892  0.92955068  0.22597866     0.13900
H2632       H  0.57965401  0.42404196  0.28298372     0.13900
N2633       N  0.57688407  0.55477904  0.25319774    -0.02400
C2634       C  0.59677953  0.55401522  0.22698399     0.00200
C2635       C  0.62633675  0.55312694  0.23872434    -0.22700
C2636       C  0.62871925  0.56037750  0.27175940    -0.22900
C2637       C  0.59979959  0.56356025  0.28032980     0.00100
H2638       H  0.64869086  0.55629430  0.22400554     0.13900
H2639       H  0.65204296  0.56771445  0.28718248     0.13900
N2640       N  0.02082701  0.57947382  0.25460252    -0.02400
C2641       C  0.02930383  0.59824963  0.28492525     0.00200
C2642       C  0.06474992  0.62497996  0.28656179    -0.22700
C2643       C  0.58049673  0.62236844  0.25382411    -0.22900
C2644       C  0.55182017  0.59943230  0.23304478     0.00100
H2645       H  0.07749374  0.64588821  0.30562169     0.13900
H2646       H  0.60632246  0.64467777  0.24599508     0.13900
N2647       N  0.92728012  0.94495799  0.26540911    -0.02400
C2648       C  0.89985178  0.94295969  0.24627297     0.00200
C2649       C  0.87160655  0.93708926  0.26586643    -0.22700
C2650       C  0.87934638  0.93138508  0.29699545    -0.22900
C2651       C  0.91251008  0.93434404  0.29698765     0.00100
H2652       H  0.84559929  0.93213298  0.25752486     0.13900
H2653       H  0.85992465  0.92025758  0.31655369     0.13900
N2654       N  0.48729835  0.93111375  0.25438014    -0.02400
C2655       C  0.48020823  0.90871635  0.28199969     0.00200
C2656       C  0.45090776  0.87467610  0.27604808    -0.22700
C2657       C  0.93552726  0.86911526  0.25033226    -0.22900
C2658       C  0.95918021  0.90086444  0.23475102     0.00100
H2659       H  0.44104735  0.85139090  0.29202243     0.13900
H2660       H  0.91495531  0.84400865  0.23855495     0.13900
O2661       O  0.76385687  0.62743457  0.52603206    -0.84200
O2662       O  0.81756964  0.69771813  0.54022584    -0.81300
C2663       C  0.84887475  0.72549249  0.54212336     0.99200
O2664       O  0.87286092  0.72970798  0.52187413    -0.81300
O2665       O  0.88933195  0.67710470  0.53909756    -0.84000
C2666       C  0.88490133  0.64573463  0.54218882     1.03700
O2667       O  0.86386143  0.62028422  0.52248611    -0.76700
O2668       O  0.79490105  0.60246600  0.54065535    -0.76900
C2669       C  0.76957313  0.60838726  0.54601235     1.03700
O2670       O  0.77607288  0.64209619  0.45595923    -0.84200
O2671       O  0.82499634  0.71421394  0.47030225    -0.81300
C2672       C  0.85038922  0.72367615  0.44982192     0.99200
O2673       O  0.87160950  0.71184104  0.45306899    -0.81300
O2674       O  0.89515679  0.66537098  0.46951121    -0.83900
C2675       C  0.87777472  0.63912228  0.44944023     1.03700
O2676       O  0.84450854  0.61676682  0.45366962    -0.76800
O2677       O  0.77400056  0.59232164  0.47118775    -0.76900
C2678       C  0.76403665  0.60853869  0.45184208     1.03700
Cr2679     Cr  0.79830157  0.66936060  0.49803711     1.93700
Cr2680     Cr  0.87845599  0.69310972  0.49608647     1.93200
Cr2681     Cr  0.82023591  0.61168356  0.49704795     1.39100
O2682       O  0.83228142  0.65800403  0.49712531    -1.22000
O2683       O  0.72051563  0.83950537  0.53600746    -0.84200
O2684       O  0.66401266  0.77029499  0.51917984    -0.81300
C2685       C  0.63587113  0.76269035  0.53548127     0.99200
O2686       O  0.61849923  0.77815600  0.52940481    -0.81300
O2687       O  0.60725704  0.83351500  0.51592173    -0.84000
C2688       C  0.62489406  0.85659408  0.53873184     1.03700
O2689       O  0.65900360  0.87295055  0.53948247    -0.76700
O2690       O  0.73028686  0.89274744  0.52256187    -0.76900
C2691       C  0.73950003  0.87362331  0.53852805     1.03700
O2692       O  0.73609610  0.85763701  0.46686934    -0.84200
O2693       O  0.67953956  0.78983461  0.44992192    -0.81300
C2694       C  0.64740131  0.76472909  0.44490035     0.99200
O2695       O  0.62215935  0.76444674  0.46087042    -0.81300
O2696       O  0.61902352  0.82649525  0.44696887    -0.83900
C2697       C  0.62421506  0.85820798  0.44878885     1.03700
O2698       O  0.64522336  0.88013847  0.47095495    -0.76800
O2699       O  0.71159959  0.89032051  0.45528189    -0.76900
C2700       C  0.73587233  0.88286451  0.45076438     1.03700
Cr2701     Cr  0.69752436  0.81564773  0.49298961     1.93700
Cr2702     Cr  0.62061622  0.80299683  0.48836237     1.93200
Cr2703     Cr  0.68507621  0.88012777  0.49701694     1.39100
O2704       O  0.66790541  0.83276782  0.49271061    -1.22000
C2705       C  0.96298267  0.49158834  0.75570398     0.03400
C2706       C  0.97059416  0.95943750  0.75210226     0.03400
C2707       C  0.50577741  0.96203963  0.75005382     0.03400
C2708       C  0.53709181  0.50690579  0.75493664     0.03400
C2709       C  0.52941058  0.53760176  0.75513319     0.03400
C2710       C  0.49168524  0.52931729  0.75627046     0.03400
N2711       N  0.57433050  0.00266563  0.74655756    -0.02400
C2712       C  0.59681829  0.01177203  0.77423890     0.00200
C2713       C  0.63258800  0.03250427  0.76504967    -0.22700
C2714       C  0.63367801  0.55683942  0.74849796    -0.22900
C2715       C  0.60125683  0.53313162  0.73268260     0.00100
H2716       H  0.65601503  0.04074105  0.78082637     0.13900
H2717       H  0.65972609  0.57323604  0.73683504     0.13900
N2718       N  0.92425551  0.48193326  0.75673081    -0.02400
C2719       C  0.90761758  0.47722807  0.78725960     0.00200
C2720       C  0.87912818  0.44271097  0.79067205    -0.22700
C2721       C  0.87057676  0.93588077  0.73509062    -0.22900
C2722       C  0.90375659  0.96115911  0.72297401     0.00100
H2723       H  0.85997895  0.43271572  0.81076773     0.13900
H2724       H  0.84657350  0.91839529  0.72049110     0.13900
N2725       N  0.98510553  0.56020374  0.75931391    -0.02400
C2726       C  0.95796770  0.56158664  0.74168360     0.00200
C2727       C  0.94222380  0.57579704  0.76160014    -0.22700
C2728       C  0.45809031  0.58391062  0.79179378    -0.22900
C2729       C  0.48494173  0.57594268  0.79037578     0.00100
H2730       H  0.92504101  0.58576864  0.75385266     0.13900
H2731       H  0.45486144  0.60000473  0.81077294     0.13900
N2732       N  0.55863040  0.57700388  0.75237601    -0.02400
C2733       C  0.59113396  0.59422135  0.77017834     0.00200
C2734       C  0.61965153  0.61184643  0.74825509    -0.22700
C2735       C  0.60636144  0.60662693  0.71737689    -0.22900
C2736       C  0.56977304  0.59130359  0.72075508     0.00100
H2737       H  0.64826626  0.62775326  0.75400016     0.13900
H2738       H  0.62246581  0.62101699  0.69599928     0.13900
N2739       N  0.50959896  0.92893968  0.75143152    -0.02400
C2740       C  0.53045091  0.92402496  0.72800527     0.00200
C2741       C  0.55543401  0.91820334  0.74341660    -0.22700
C2742       C  0.05064918  0.92030686  0.78258882    -0.22900
C2743       C  0.02014237  0.92232350  0.78469403     0.00100
H2744       H  0.57364001  0.91146372  0.73139708     0.13900
H2745       H  0.06069793  0.90965356  0.80125312     0.13900
N2746       N  0.93908046  0.92178359  0.75484730    -0.02400
C2747       C  0.92881508  0.90498668  0.78529973     0.00200
C2748       C  0.92301791  0.87042292  0.78340621    -0.22700
C2749       C  0.92941309  0.86451635  0.75198745    -0.22900
C2750       C  0.93569337  0.89432333  0.73428347     0.00100
H2751       H  0.90995901  0.84949701  0.80188291     0.13900
H2752       H  0.92160199  0.83806946  0.74166108     0.13900
C2753       C  0.58805349  0.67354386  0.67540528    -0.13300
C2754       C  0.57542071  0.65962370  0.64381154     0.17100
C2755       C  0.55179944  0.62152485  0.64047938     0.03400
C2756       C  0.54322803  0.59883530  0.66854181    -0.11800
C2757       C  0.55813165  0.61291106  0.70035797    -0.02800
C2758       C  0.57820412  0.65177398  0.70335257     0.02700
C2759       C  0.58976052  0.68565507  0.61532442     0.09500
N2760       N  0.53697124  0.60527306  0.60878986     0.65900
H2761       H  0.52627614  0.56979293  0.66488993     0.18800
N2762       N  0.59232606  0.67089056  0.73398186     0.76300
H2763       H  0.60815677  0.70192150  0.67871576     0.10300
C2764       C  0.59207620  0.72001878  0.61637480     0.04000
C2765       C  0.60775431  0.74406204  0.59016968    -0.04700
C2766       C  0.62245234  0.73616033  0.56283664    -0.23100
C2767       C  0.62165275  0.70298679  0.56193718     0.13200
C2768       C  0.60537230  0.67811684  0.58800929    -0.12300
N2769       N  0.57895283  0.73185441  0.64341441     0.64900
H2770       H  0.60871638  0.76977225  0.59147375     0.12800
N2771       N  0.63627609  0.69371209  0.53443739     0.61500
H2772       H  0.60577779  0.65316458  0.58720335     0.08900
O2773       O  0.58180511  0.69225873  0.74234934    -0.39900
O2774       O  0.62372886  0.67922063  0.74269932    -0.39100
O2775       O  0.54896269  0.58800674  0.59347464    -0.39100
O2776       O  0.50772464  0.60213760  0.59929656    -0.36800
O2777       O  0.66682855  0.69686774  0.53723049    -0.37700
O2778       O  0.61643705  0.67699778  0.50962158    -0.33900
O2779       O  0.60091492  0.75094569  0.66624528    -0.35300
O2780       O  0.55305209  0.73666193  0.63756409    -0.39600
C2781       C  0.52841434  0.86296627  0.66079082    -0.13300
C2782       C  0.54674110  0.88855636  0.63657289     0.17100
C2783       C  0.54494518  0.92046197  0.63721808     0.03400
C2784       C  0.53083281  0.92846249  0.66557663    -0.11800
C2785       C  0.51958311  0.90627944  0.69366257    -0.02800
C2786       C  0.51459234  0.87107169  0.68862839     0.02700
C2787       C  0.56701694  0.88059473  0.61145119     0.09500
N2788       N  0.55897429  0.94578772  0.61048768     0.65900
H2789       H  0.53078228  0.95320912  0.66658567     0.18800
N2790       N  0.49672503  0.84298212  0.71200848     0.76300
H2791       H  0.52582986  0.83655348  0.65867795     0.10300
C2792       C  0.59544846  0.87526351  0.62116658     0.04000
C2793       C  0.61477716  0.86868248  0.59706273    -0.04700
C2794       C  0.60512601  0.86530756  0.56339828    -0.23100
C2795       C  0.57563395  0.86888087  0.55384659     0.13200
C2796       C  0.55711271  0.87677576  0.57779017    -0.12300
N2797       N  0.60403799  0.87490385  0.65548771     0.64900
H2798       H  0.63659252  0.86486284  0.60483015     0.12800
N2799       N  0.56465611  0.86534109  0.51979101     0.61500
H2800       H  0.53478175  0.87979438  0.57010948     0.08900
O2801       O  0.46277547  0.82456368  0.70997908    -0.39900
O2802       O  0.04895169  0.85517787  0.73163488    -0.39100
O2803       O  0.58800738  0.95306435  0.59668902    -0.39100
O2804       O  0.54315380  0.96206233  0.60135224    -0.36800
O2805       O  0.53799621  0.83580824  0.50929112    -0.37700
O2806       O  0.57760837  0.89318620  0.50188711    -0.33900
O2807       O  0.59051417  0.84487141  0.67014751    -0.35300
O2808       O  0.63083786  0.90257491  0.66847755    -0.39600
C2809       C  0.86131608  0.96665010  0.64423545    -0.13300
C2810       C  0.86611595  0.94297936  0.62441487     0.17100
C2811       C  0.89453596  0.93718733  0.63266350     0.03400
C2812       C  0.91254875  0.94995487  0.66377284    -0.11800
C2813       C  0.90324493  0.96873548  0.68662482    -0.02800
C2814       C  0.87906279  0.97941631  0.67471940     0.02700
C2815       C  0.83828670  0.92329454  0.59783963     0.09500
N2816       N  0.90701212  0.92084889  0.60929162     0.65900
H2817       H  0.93906713  0.47740005  0.68327058     0.18800
N2818       N  0.86839970  0.99995138  0.69418486     0.76300
H2819       H  0.84102259  0.97309238  0.63727126     0.10300
C2820       C  0.81152077  0.88620873  0.60121996     0.04000
C2821       C  0.78017256  0.87049328  0.58124393    -0.04700
C2822       C  0.77380160  0.89128510  0.55857295    -0.23100
C2823       C  0.80125749  0.92818622  0.55445267     0.13200
C2824       C  0.83299091  0.94359512  0.57380651    -0.12300
N2825       N  0.81426741  0.86480262  0.62669634     0.64900
H2826       H  0.75983593  0.84215243  0.58475298     0.12800
N2827       N  0.79756851  0.95058373  0.53072241     0.61500
H2828       H  0.85288239  0.97226090  0.57128881     0.08900
O2829       O  0.83502803  0.98569753  0.69941107    -0.39900
O2830       O  0.88693994  0.03397460  0.69142097    -0.39100
O2831       O  0.94527604  0.50773232  0.61855725    -0.39100
O2832       O  0.88501029  0.89303766  0.59259587    -0.36800
O2833       O  0.78471436  0.96981546  0.53964340    -0.37700
O2834       O  0.81357250  0.95659131  0.50326810    -0.33900
O2835       O  0.81162255  0.87169612  0.65674812    -0.35300
O2836       O  0.81207502  0.83517989  0.61906839    -0.39600
C2837       C  0.92380226  0.56330816  0.65369463    -0.13300
C2838       C  0.94783301  0.59912943  0.64462152     0.17100
C2839       C  0.97738214  0.62080686  0.66623220     0.03400
C2840       C  0.98229303  0.60558742  0.69542959    -0.11800
C2841       C  0.95741173  0.56979999  0.70528622    -0.02800
C2842       C  0.92537974  0.55079036  0.68539729     0.02700
C2843       C  0.93633797  0.61443600  0.61688272     0.09500
N2844       N  0.00174587  0.65854221  0.65965420     0.65900
H2845       H  0.50232946  0.62131991  0.71051719     0.18800
N2846       N  0.89095826  0.52942435  0.70042317     0.76300
H2847       H  0.89891484  0.54796717  0.63949693     0.10300
C2848       C  0.92651067  0.59752042  0.58516434     0.04000
C2849       C  0.91107962  0.60912934  0.56129639    -0.04700
C2850       C  0.90471317  0.63754453  0.56788714    -0.23100
C2851       C  0.91535746  0.65527277  0.59921650     0.13200
C2852       C  0.93071000  0.64349236  0.62334885    -0.12300
N2853       N  0.93124419  0.56785055  0.57685760     0.64900
H2854       H  0.90349324  0.59523231  0.53736956     0.12800
N2855       N  0.90851909  0.68350421  0.60777568     0.61500
H2856       H  0.93693534  0.65620505  0.64779465     0.08900
O2857       O  0.86781083  0.50090439  0.68542225    -0.39900
O2858       O  0.87936914  0.54705368  0.71560949    -0.39100
O2859       O  0.51470864  0.67784679  0.68000745    -0.39100
O2860       O  0.00807743  0.66961187  0.63011821    -0.36800
O2861       O  0.87768757  0.67545733  0.61785261    -0.37700
O2862       O  0.93434586  0.71605626  0.60952607    -0.33900
O2863       O  0.90398977  0.53605136  0.57572990    -0.35300
O2864       O  0.95961214  0.57423335  0.56218425    -0.39600
C2865       C  0.70821428  0.59608854  0.61891403    -0.13300
C2866       C  0.69340311  0.55928595  0.62668177     0.17100
C2867       C  0.70646457  0.53952359  0.60949595     0.03400
C2868       C  0.73268880  0.55640327  0.58452393    -0.11800
C2869       C  0.74536905  0.59246815  0.57524782    -0.02800
C2870       C  0.73317833  0.61248964  0.59323763     0.02700
C2871       C  0.66255263  0.54231800  0.65075396     0.09500
N2872       N  0.69113426  0.50156007  0.61478390     0.65900
H2873       H  0.74149242  0.54050410  0.57093326     0.18800
N2874       N  0.74564864  0.64959450  0.58575918     0.76300
H2875       H  0.69921327  0.61204494  0.63212549     0.10300
C2876       C  0.66136565  0.52188591  0.67850538     0.04000
C2877       C  0.63132304  0.50757972  0.69991832    -0.04700
C2878       C  0.60715740  0.52059950  0.69945222    -0.23100
C2879       C  0.60710996  0.53893867  0.67038519     0.13200
C2880       C  0.63419183  0.54873323  0.64637495    -0.12300
N2881       N  0.69287674  0.52125463  0.68879432     0.64900
H2882       H  0.63182756  0.49327437  0.72155395     0.12800
N2883       N  0.55776712  0.02466383  0.65723899     0.61500
H2884       H  0.63400175  0.56287328  0.62431280     0.08900
O2885       O  0.76412170  0.67393440  0.60721481    -0.39900
O2886       O  0.73057939  0.65661796  0.56256078    -0.39100
O2887       O  0.66320995  0.47928984  0.59854787    -0.39100
O2888       O  0.71007099  0.49055275  0.62824221    -0.36800
O2889       O  0.53275640  0.00777236  0.67772025    -0.37700
O2890       O  0.55266607  0.04031653  0.63328053    -0.33900
O2891       O  0.72313797  0.55054399  0.68972849    -0.35300
O2892       O  0.68962151  0.49388068  0.70339763    -0.39600
C2893       C  0.88911812  0.81727568  0.58540886    -0.13300
C2894       C  0.88122675  0.80726430  0.61874430     0.17100
C2895       C  0.86064719  0.76983063  0.62646759     0.03400
C2896       C  0.84908691  0.74357115  0.60098020    -0.11800
C2897       C  0.85822595  0.75376981  0.56785139    -0.02800
C2898       C  0.87836692  0.79107636  0.56010350     0.02700
C2899       C  0.89435418  0.83615487  0.64496641     0.09500
N2900       N  0.85292896  0.75794653  0.66012770     0.65900
H2901       H  0.83460091  0.71506112  0.60732463     0.18800
N2902       N  0.88777910  0.80294358  0.52659848     0.76300
H2903       H  0.90426240  0.84570835  0.57890243     0.10300
C2904       C  0.93090262  0.86428432  0.64749933     0.04000
C2905       C  0.94250933  0.88893014  0.67440860    -0.04700
C2906       C  0.91929059  0.88470364  0.70039178    -0.23100
C2907       C  0.88191089  0.85799700  0.69625873     0.13200
C2908       C  0.86999960  0.83511724  0.66824904    -0.12300
N2909       N  0.95720979  0.86569849  0.62514043     0.64900
H2910       H  0.97058583  0.90909143  0.67703249     0.12800
N2911       N  0.85668203  0.84859803  0.72266745     0.61500
H2912       H  0.84171789  0.81413474  0.66630674     0.08900
O2913       O  0.91527696  0.80462820  0.51402289    -0.39900
O2914       O  0.87464280  0.82000049  0.51312872    -0.39100
O2915       O  0.82060369  0.74057572  0.66976537    -0.39100
O2916       O  0.87730939  0.75871174  0.67804406    -0.36800
O2917       O  0.85108234  0.82276438  0.74130782    -0.37700
O2918       O  0.83173201  0.85529272  0.71930005    -0.33900
O2919       O  0.97334205  0.89189176  0.60546460    -0.35300
O2920       O  0.96495326  0.84114764  0.62553948    -0.39600
C2921       C  0.59184722  0.91261538  0.40089309    -0.13300
C2922       C  0.55932320  0.88487725  0.38706622     0.17100
C2923       C  0.54866678  0.84813188  0.39344805     0.03400
C2924       C  0.57033619  0.84052450  0.41351303    -0.11800
C2925       C  0.60285611  0.86835015  0.42735785    -0.02800
C2926       C  0.61328537  0.90483395  0.42122227     0.02700
C2927       C  0.54126452  0.89457870  0.36107491     0.09500
N2928       N  0.51655357  0.81787976  0.37932127     0.65900
H2929       H  0.56157954  0.81233260  0.41804252     0.18800
N2930       N  0.64695259  0.93444430  0.43303154     0.76300
H2931       H  0.60182779  0.94063219  0.39445180     0.10300
C2932       C  0.52640456  0.91681412  0.36611670     0.04000
C2933       C  0.50928838  0.92330382  0.33919749    -0.04700
C2934       C  0.50573200  0.90789752  0.30751364    -0.23100
C2935       C  0.51885799  0.88346514  0.30444414     0.13200
C2936       C  0.53903515  0.88036654  0.32967123    -0.12300
N2937       N  0.52614420  0.93079215  0.39850926     0.64900
H2938       H  0.49710372  0.93897274  0.34321565     0.12800
N2939       N  0.51094920  0.85939631  0.27702577     0.61500
H2940       H  0.55149753  0.86447732  0.32496675     0.08900
O2941       O  0.64864212  0.94785800  0.46149737    -0.39900
O2942       O  0.67101468  0.95307567  0.41213784    -0.39100
O2943       O  0.51848408  0.80534068  0.35141974    -0.39100
O2944       O  0.49181136  0.79682031  0.39873567    -0.36800
O2945       O  0.53749647  0.86158390  0.26185738    -0.37700
O2946       O  0.48265951  0.82841529  0.27894039    -0.33900
O2947       O  0.55524024  0.95517194  0.41184674    -0.35300
O2948       O  0.49650735  0.92281740  0.41158727    -0.39600
C2949       C  0.90939878  0.87352198  0.36887923    -0.13300
C2950       C  0.88766227  0.83891773  0.35484083     0.17100
C2951       C  0.87495373  0.83612710  0.32219890     0.10200
C2952       C  0.88563415  0.86776029  0.30397189    -0.11800
C2953       C  0.90962586  0.90312592  0.31677279    -0.02800
C2954       C  0.91852152  0.90529152  0.35126746     0.02700
C2955       C  0.87541294  0.80658496  0.37628356     0.09500
N2956       N  0.85040460  0.80149726  0.30744381     0.65900
H2957       H  0.87487784  0.86477914  0.27932595     0.18800
N2958       N  0.93082831  0.93758226  0.37081427     0.76300
H2959       H  0.91695381  0.87585073  0.39489997     0.10300
C2960       C  0.89088692  0.78475307  0.37443653     0.04000
C2961       C  0.88149144  0.75710746  0.39775587    -0.04700
C2962       C  0.85630924  0.75025082  0.42301350    -0.23100
C2963       C  0.83882662  0.77059854  0.42305200     0.13200
C2964       C  0.84907594  0.79878641  0.40027498    -0.12300
N2965       N  0.91740728  0.79143751  0.34996443     0.64900
H2966       H  0.89484090  0.74164953  0.39662567     0.12800
N2967       N  0.81070075  0.76330720  0.44598468     0.61500
H2968       H  0.83632212  0.81480089  0.40136611     0.08900
O2969       O  0.91206271  0.93576505  0.39548120    -0.39900
O2970       O  0.96405324  0.96087514  0.37202913    -0.39100
O2971       O  0.81697357  0.78974051  0.30772189    -0.39100
O2972       O  0.86231005  0.78660132  0.28847985    -0.36800
O2973       O  0.81440487  0.78805813  0.46568674    -0.37700
O2974       O  0.77972681  0.73552526  0.44153025    -0.33900
O2975       O  0.94736126  0.82098027  0.35064089    -0.35300
O2976       O  0.91234583  0.76656990  0.32973488    -0.39600
C2977       C  0.97539252  0.63994663  0.31918893    -0.13300
C2978       C  0.96778126  0.62610333  0.35130826     0.17100
C2979       C  0.98444919  0.60730508  0.36296282     0.03400
C2980       C  0.00124987  0.59585251  0.33979095    -0.11800
C2981       C  0.00603679  0.60672123  0.30634908    -0.02800
C2982       C  0.99760994  0.63382617  0.29815219     0.02700
C2983       C  0.94176393  0.63018153  0.37238276     0.09500
N2984       N  0.98698751  0.60263709  0.39824078     0.65900
H2985       H  0.01298823  0.58050010  0.34822114     0.18800
N2986       N  0.01557307  0.65942434  0.27222264     0.76300
H2987       H  0.96535749  0.65693380  0.31080459     0.10300
C2988       C  0.94701324  0.66440793  0.38170539     0.04000
C2989       C  0.92516386  0.66647640  0.40623783    -0.04700
C2990       C  0.89766708  0.63507365  0.42148768    -0.23100
C2991       C  0.89128214  0.60094701  0.41093851     0.13200
C2992       C  0.91291048  0.59870331  0.38633196    -0.12300
N2993       N  0.97542780  0.69744932  0.36805325     0.64900
H2994       H  0.93014216  0.69297184  0.41381685     0.12800
N2995       N  0.86474199  0.56849582  0.42668614     0.61500
H2996       H  0.90847096  0.57223750  0.37940592     0.08900
O2997       O  0.99740176  0.66816695  0.25415828    -0.39900
O2998       O  0.04865485  0.68254861  0.27650117    -0.39100
O2999       O  0.99745782  0.58204412  0.40862480    -0.39100
O3000       O  0.98506329  0.62376196  0.41902259    -0.36800
O3001       O  0.87078660  0.56100859  0.45533957    -0.37700
O3002       O  0.83774091  0.54503767  0.41016500    -0.33900
O3003       O  0.96921659  0.70957818  0.34205116    -0.35300
O3004       O  0.00147585  0.71907093  0.38663250    -0.39600
C3005       C  0.64217799  0.65326297  0.33099993    -0.13300
C3006       C  0.61979378  0.64351538  0.35853384     0.17100
C3007       C  0.59073453  0.60708496  0.36108229     0.03400
C3008       C  0.58368409  0.58238003  0.33438825    -0.11800
C3009       C  0.60695519  0.59164514  0.30703850    -0.02800
C3010       C  0.63764158  0.62806653  0.30629963     0.02700
C3011       C  0.62634360  0.67306974  0.38251767     0.09500
N3012       N  0.57001395  0.59422801  0.39122034     0.65900
H3013       H  0.55978974  0.55586802  0.33492680     0.18800
N3014       N  0.66390683  0.64152308  0.28024355     0.76300
H3015       H  0.66405382  0.68119988  0.32870391     0.10300
C3016       C  0.66018350  0.69506628  0.39851373     0.04000
C3017       C  0.66652087  0.72505620  0.41794368    -0.04700
C3018       C  0.63982010  0.73401888  0.42207836    -0.23100
C3019       C  0.60593424  0.71186912  0.40633634     0.13200
C3020       C  0.59946608  0.68173908  0.38685278    -0.12300
N3021       N  0.68810210  0.68673343  0.39634512     0.64900
H3022       H  0.69244764  0.74105327  0.43042187     0.12800
N3023       N  0.57855573  0.72086791  0.40826351     0.61500
H3024       H  0.57371227  0.66573768  0.37407180     0.08900
O3025       O  0.68694142  0.63194035  0.27906080    -0.39900
O3026       O  0.67197680  0.67127262  0.26694288    -0.39100
O3027       O  0.54163946  0.56326468  0.39181578    -0.39100
O3028       O  0.58300112  0.61066158  0.41855319    -0.36800
O3029       O  0.58193582  0.74745511  0.39211397    -0.37700
O3030       O  0.54932672  0.69994122  0.42286114    -0.33900
O3031       O  0.71305754  0.70331923  0.37559343    -0.35300
O3032       O  0.69347014  0.67186871  0.42076019    -0.39600
C3033       C  0.70360906  0.53581145  0.38706889    -0.13300
C3034       C  0.68256925  0.54966745  0.37544912     0.17100
C3035       C  0.68969701  0.58333429  0.38834892     0.03400
C3036       C  0.71615714  0.60183710  0.41290657    -0.11800
C3037       C  0.73671210  0.58780502  0.42517211    -0.02800
C3038       C  0.73069868  0.55464313  0.41135602     0.02700
C3039       C  0.65285115  0.52865352  0.35059356     0.09500
N3040       N  0.67147179  0.60020994  0.37556634     0.65900
H3041       H  0.72063000  0.62753184  0.42237291     0.18800
N3042       N  0.75306711  0.54061846  0.42013066     0.76300
H3043       H  0.69886800  0.51005773  0.37747013     0.10300
C3044       C  0.65878955  0.51575770  0.32050398     0.04000
C3045       C  0.63026569  0.49646984  0.29792705    -0.04700
C3046       C  0.59518046  0.49017413  0.30362204    -0.23100
C3047       C  0.58885138  0.50221189  0.33455418     0.13200
C3048       C  0.61779344  0.52098135  0.35744351    -0.12300
N3049       N  0.69409481  0.52384628  0.31145474     0.64900
H3050       H  0.63600635  0.48719916  0.27493794     0.12800
N3051       N  0.55339464  0.00637049  0.34575449     0.61500
H3052       H  0.61300128  0.52982374  0.38112389     0.08900
O3053       O  0.74559775  0.52110978  0.44552357    -0.39900
O3054       O  0.77353239  0.53970029  0.39840222    -0.39100
O3055       O  0.64765527  0.60070159  0.39311885    -0.39100
O3056       O  0.68642041  0.62311437  0.35283060    -0.36800
O3057       O  0.53202604  0.00344021  0.32297340    -0.37700
O3058       O  0.54498165  0.00792358  0.37548739    -0.33900
O3059       O  0.70063363  0.49849287  0.30935538    -0.35300
O3060       O  0.71592463  0.55431899  0.29907610    -0.39600
C3061       C  0.88621243  0.98177764  0.36829011    -0.13300
C3062       C  0.85024708  0.96647353  0.35800963     0.17100
C3063       C  0.84274552  0.97426638  0.32629579     0.03400
C3064       C  0.87110630  0.99476846  0.30458170    -0.11800
C3065       C  0.90724803  0.00603388  0.31311401    -0.02800
C3066       C  0.91496703  0.00095048  0.34602584     0.02700
C3067       C  0.82090393  0.94447710  0.38144920     0.09500
N3068       N  0.80645674  0.96106471  0.31567782     0.65900
H3069       H  0.86492482  0.00116713  0.28037964     0.18800
N3070       N  0.95305684  0.51206635  0.35500766     0.76300
H3071       H  0.89163781  0.97872607  0.39392362     0.10300
C3072       C  0.80898870  0.90767051  0.38759337     0.04000
C3073       C  0.78175771  0.88836511  0.41070614    -0.04700
C3074       C  0.76510222  0.90459686  0.42710850    -0.23100
C3075       C  0.77694593  0.94138940  0.42074060     0.13200
C3076       C  0.80480225  0.96098408  0.39825735    -0.12300
N3077       N  0.82252580  0.88863654  0.36942353     0.64900
H3078       H  0.77275148  0.86006860  0.41497335     0.12800
N3079       N  0.76075511  0.95922042  0.43656405     0.61500
H3080       H  0.81372916  0.98919728  0.39365935     0.08900
O3081       O  0.96241898  0.51614449  0.38521364    -0.39900
O3082       O  0.97433239  0.51222485  0.33351668    -0.39100
O3083       O  0.79360600  0.98150463  0.31760053    -0.39100
O3084       O  0.78913271  0.93107615  0.30023096    -0.36800
O3085       O  0.77690380  0.98113145  0.46038434    -0.37700
O3086       O  0.73506364  0.95945631  0.42203568    -0.33900
O3087       O  0.84035979  0.87759956  0.38489247    -0.35300
O3088       O  0.80659434  0.87255363  0.34274831    -0.39600
C3089       C  0.87326046  0.53773814  0.82048605    -0.13300
C3090       C  0.88145032  0.53888009  0.85415538     0.17100
C3091       C  0.89624000  0.51836075  0.86521960     0.03400
C3092       C  0.90961033  0.50407209  0.84181769    -0.11800
C3093       C  0.90295765  0.50381768  0.80758450    -0.02800
C3094       C  0.87807714  0.51494039  0.79865635     0.02700
C3095       C  0.87088249  0.55818807  0.87776263     0.09500
N3096       N  0.89519400  0.50933947  0.89960077     0.65900
H3097       H  0.92524643  0.98462059  0.83914913     0.18800
N3098       N  0.84880636  0.49399469  0.77584935     0.76300
H3099       H  0.85678936  0.54870910  0.81283920     0.10300
C3100       C  0.88894431  0.59641881  0.87882019     0.04000
C3101       C  0.88178736  0.61389161  0.90456817    -0.04700
C3102       C  0.85553032  0.59382212  0.92857461    -0.23100
C3103       C  0.83516829  0.55534581  0.92541587     0.13200
C3104       C  0.84322500  0.53809942  0.90028266    -0.12300
N3105       N  0.91427126  0.61780820  0.85377023     0.64900
H3106       H  0.89663441  0.64333505  0.90550524     0.12800
N3107       N  0.80632956  0.53314291  0.94744199     0.61500
H3108       H  0.82770861  0.50871039  0.89836122     0.08900
O3109       O  0.83553419  0.50979902  0.76034545    -0.39900
O3110       O  0.82748443  0.46111932  0.78289024    -0.39100
O3111       O  0.87794415  0.98715039  0.91469682    -0.39100
O3112       O  0.92385344  0.52334278  0.91673777    -0.36800
O3113       O  0.81067611  0.51448444  0.96888861    -0.37700
O3114       O  0.77481104  0.52602576  0.94064338    -0.33900
O3115       O  0.90278369  0.62141144  0.82606732    -0.35300
O3116       O  0.94695551  0.63908542  0.86160654    -0.39600
C3117       C  0.87568547  0.55090513  0.09011135    -0.13300
C3118       C  0.86216206  0.54721460  0.12251890     0.17100
C3119       C  0.83802166  0.55957067  0.12881967     0.03400
C3120       C  0.82960155  0.57663258  0.10349543    -0.11800
C3121       C  0.84644919  0.58386523  0.07232812    -0.02800
C3122       C  0.86879706  0.56958766  0.06547743     0.02700
C3123       C  0.88233190  0.54151126  0.14995356     0.09500
N3124       N  0.82462532  0.55847963  0.16148542     0.65900
H3125       H  0.81206272  0.58697816  0.10918887     0.18800
N3126       N  0.88570744  0.57471858  0.03390112     0.76300
H3127       H  0.89452262  0.54206496  0.08473828     0.10300
C3128       C  0.86788116  0.51228434  0.17241295     0.04000
C3129       C  0.88999427  0.51144243  0.19802689    -0.04700
C3130       C  0.92578787  0.54037444  0.20367978    -0.23100
C3131       C  0.93916510  0.57078956  0.18157496     0.13200
C3132       C  0.91828846  0.56892680  0.15404882    -0.12300
N3133       N  0.83051589  0.48456056  0.17124809     0.64900
H3134       H  0.87711592  0.99312485  0.22084886     0.12800
N3135       N  0.97119481  0.60576314  0.18835991     0.61500
H3136       H  0.92894507  0.59156587  0.13712218     0.08900
O3137       O  0.87406417  0.54821138  0.01380621    -0.39900
O3138       O  0.91657239  0.60238923  0.02950024    -0.39100
O3139       O  0.84583608  0.57954915  0.18387214    -0.39100
O3140       O  0.79098025  0.54252136  0.16596872    -0.36800
O3141       O  0.98649064  0.61317889  0.21628117    -0.37700
O3142       O  0.98169130  0.63135241  0.16790497    -0.33900
O3143       O  0.81871764  0.95393121  0.17400349    -0.35300
O3144       O  0.80833924  0.48939486  0.18732730    -0.39600
C3145       C  0.61519338  0.58288846  0.85769594    -0.13300
C3146       C  0.65042038  0.61288359  0.85838672     0.17100
C3147       C  0.65870531  0.64161617  0.83697237     0.03400
C3148       C  0.63330516  0.63786771  0.81315729    -0.11800
C3149       C  0.60069861  0.60424643  0.80713427    -0.02800
C3150       C  0.58946665  0.57953313  0.83385405     0.02700
C3151       C  0.67745674  0.61522568  0.88293219     0.09500
N3152       N  0.69367107  0.67389641  0.83757503     0.65900
H3153       H  0.64186303  0.65992362  0.79595858     0.18800
N3154       N  0.55248758  0.55880883  0.84315838     0.76300
H3155       H  0.60715355  0.56259663  0.87676244     0.10300
C3156       C  0.67221251  0.61607270  0.91742256     0.04000
C3157       C  0.69958824  0.62170818  0.93980155    -0.04700
C3158       C  0.73205230  0.62554667  0.92857605    -0.23100
C3159       C  0.73650782  0.62245629  0.89426471     0.13200
C3160       C  0.70939476  0.61762287  0.87172373    -0.12300
N3161       N  0.63967559  0.61238271  0.93006864     0.64900
H3162       H  0.69567612  0.62363365  0.96617940     0.12800
N3163       N  0.76919341  0.62628058  0.88188158     0.61500
H3164       H  0.71349066  0.61625932  0.84531683     0.08900
O3165       O  0.54434152  0.55407056  0.87356722    -0.39900
O3166       O  0.52771372  0.54594306  0.82166148    -0.39100
O3167       O  0.71711283  0.67734597  0.81693291    -0.39100
O3168       O  0.69911814  0.70099416  0.85478233    -0.36800
O3169       O  0.79452575  0.65704571  0.87294583    -0.37700
O3170       O  0.77087010  0.59835568  0.87573463    -0.33900
O3171       O  0.61672931  0.58318775  0.94376074    -0.35300
O3172       O  0.63632004  0.63979905  0.93194956    -0.39600
C3173       C  0.95130310  0.81664277  0.91708469    -0.13300
C3174       C  0.93308725  0.81956594  0.88944398     0.17100
C3175       C  0.89692540  0.79166379  0.88346401     0.03400
C3176       C  0.87967149  0.76200864  0.90493056    -0.11800
C3177       C  0.89772899  0.75872692  0.93255515    -0.02800
C3178       C  0.93424125  0.78653425  0.93836599     0.02700
C3179       C  0.95368460  0.84731140  0.86342017     0.09500
N3180       N  0.87749533  0.79279106  0.85514948     0.65900
H3181       H  0.85182002  0.74124994  0.89975205     0.18800
N3182       N  0.95462694  0.78460721  0.96546812     0.76300
H3183       H  0.97948495  0.83703729  0.92132529     0.10300
C3184       C  0.97229636  0.88530421  0.86869226     0.04000
C3185       C  0.99204989  0.90909391  0.84231691    -0.04700
C3186       C  0.99406580  0.89623364  0.81047323    -0.23100
C3187       C  0.97923840  0.85783634  0.80797557     0.13200
C3188       C  0.95807628  0.83443970  0.83319155    -0.12300
N3189       N  0.97257943  0.90004711  0.90083552     0.64900
H3190       H  0.00686077  0.93775208  0.84724495     0.12800
N3191       N  0.98766901  0.84124169  0.78183491     0.61500
H3192       H  0.94680000  0.80544568  0.82980157     0.08900
O3193       O  0.96447963  0.80733424  0.98914751    -0.39900
O3194       O  0.96872643  0.76534718  0.96251245    -0.39100
O3195       O  0.86828761  0.76940871  0.83211534    -0.39100
O3196       O  0.86573925  0.81421164  0.85507815    -0.36800
O3197       O  0.96142809  0.81675889  0.76517102    -0.37700
O3198       O  0.01437315  0.83753973  0.78688187    -0.33900
O3199       O  0.00210094  0.92371418  0.91412050    -0.35300
O3200       O  0.94345246  0.88918296  0.91625343    -0.39600
C3201       C  0.62124033  0.57682959  0.13887527    -0.13300
C3202       C  0.65484068  0.60854475  0.14442662     0.17100
C3203       C  0.66030099  0.62829398  0.17419988     0.03400
C3204       C  0.63478661  0.61275506  0.19940639    -0.11800
C3205       C  0.60530660  0.57700347  0.19670570    -0.02800
C3206       C  0.59639535  0.56091306  0.16478157     0.02700
C3207       C  0.68397807  0.61882014  0.11982247     0.09500
N3208       N  0.69334726  0.66166653  0.18111680     0.65900
H3209       H  0.64165666  0.62585475  0.22318130     0.18800
N3210       N  0.56214258  0.52897197  0.15855315     0.76300
H3211       H  0.61529260  0.56347262  0.11475090     0.10300
C3212       C  0.69241014  0.59293712  0.10838572     0.04000
C3213       C  0.71834744  0.60219564  0.08389497    -0.04700
C3214       C  0.73714099  0.63733997  0.07091059    -0.23100
C3215       C  0.72998458  0.66377213  0.08332029     0.13200
C3216       C  0.70342366  0.65425343  0.10742402    -0.12300
N3217       N  0.67630163  0.55769270  0.12271912     0.64900
H3218       H  0.72431064  0.58183748  0.07547311     0.12800
N3219       N  0.74829742  0.69992305  0.07079886     0.61500
H3220       H  0.69782771  0.67464530  0.11607508     0.08900
O3221       O  0.55298731  0.51589214  0.12946666    -0.39900
O3222       O  0.53848577  0.51830787  0.18070457    -0.39100
O3223       O  0.69245549  0.68944320  0.18994441    -0.39100
O3224       O  0.72232876  0.66162385  0.18448913    -0.36800
O3225       O  0.73590755  0.70711418  0.04551270    -0.37700
O3226       O  0.77287930  0.72552609  0.08802710    -0.33900
O3227       O  0.65275951  0.53031379  0.10644606    -0.35300
O3228       O  0.69104939  0.55320908  0.14781358    -0.39600
C3229       C  0.97417088  0.85471729  0.15919700    -0.13300
C3230       C  0.94588221  0.84980370  0.13925758     0.17100
C3231       C  0.92903155  0.86926567  0.14735541     0.03400
C3232       C  0.93956353  0.89168132  0.17589545    -0.11800
C3233       C  0.96430257  0.89267938  0.19918703    -0.02800
C3234       C  0.98074883  0.87206709  0.19033438     0.02700
C3235       C  0.92981378  0.81866062  0.11505373     0.09500
N3236       N  0.89611101  0.86014943  0.13151820     0.65900
H3237       H  0.92424720  0.90388721  0.18234416     0.18800
N3238       N  0.50364726  0.87063016  0.20526869     0.76300
H3239       H  0.98577371  0.83809054  0.15397142     0.10300
C3240       C  0.92857702  0.82383881  0.08074144     0.04000
C3241       C  0.91183931  0.79366804  0.05911149    -0.04700
C3242       C  0.89720770  0.75801768  0.07075380    -0.23100
C3243       C  0.89910521  0.75275299  0.10502150     0.13200
C3244       C  0.91521886  0.78297271  0.12684361    -0.12300
N3245       N  0.94559786  0.85959276  0.06734410     0.64900
H3246       H  0.91079164  0.79818920  0.03278475     0.12800
N3247       N  0.88269547  0.71694870  0.11822746     0.61500
H3248       H  0.91570976  0.77854797  0.15326985     0.08900
O3249       O  0.48228053  0.83925491  0.21612871    -0.39900
O3250       O  0.53517715  0.87817258  0.19844969    -0.39100
O3251       O  0.86712002  0.83539083  0.14393462    -0.39100
O3252       O  0.89556390  0.88118579  0.11023352    -0.36800
O3253       O  0.84940808  0.69962416  0.12466564    -0.37700
O3254       O  0.90212277  0.70450460  0.12725295    -0.33900
O3255       O  0.97956325  0.87955144  0.06849381    -0.35300
O3256       O  0.92764581  0.86864742  0.04937576    -0.39600
C3257       C  0.62085654  0.70474977  0.88828369    -0.13300
C3258       C  0.58447994  0.69139840  0.88029276     0.17100
C3259       C  0.56656520  0.70677225  0.89654780     0.03400
C3260       C  0.58474489  0.73447440  0.92046118    -0.11800
C3261       C  0.62116814  0.74802370  0.92878227    -0.02800
C3262       C  0.63934222  0.73290807  0.91205588     0.02700
C3263       C  0.56438665  0.65975116  0.85687733     0.09500
N3264       N  0.52970583  0.69453597  0.88892886     0.65900
H3265       H  0.57009554  0.74560728  0.93243597     0.18800
N3266       N  0.67618879  0.74495587  0.91952134     0.76300
H3267       H  0.63478083  0.69276814  0.87645067     0.10300
C3268       C  0.56875331  0.66304010  0.82224417     0.04000
C3269       C  0.54521486  0.63347634  0.80079941    -0.04700
C3270       C  0.51655049  0.60070301  0.81312784    -0.23100
C3271       C  0.51208441  0.59908824  0.84830072     0.13200
C3272       C  0.53678376  0.62724771  0.86938430    -0.12300
N3273       N  0.59367248  0.69785067  0.80894328     0.64900
H3274       H  0.54639230  0.63679257  0.77440520     0.12800
N3275       N  0.48027748  0.57123067  0.86341929     0.61500
H3276       H  0.53228485  0.62486648  0.89598446     0.08900
O3277       O  0.70088395  0.76897048  0.90183346    -0.39900
O3278       O  0.68354329  0.72729457  0.93962240    -0.39100
O3279       O  0.50582889  0.67766144  0.91053678    -0.39100
O3280       O  0.52217794  0.70645947  0.86355023    -0.36800
O3281       O  0.47871361  0.54202851  0.87070493    -0.37700
O3282       O  0.46205386  0.58091838  0.88022959    -0.33900
O3283       O  0.58367686  0.72047731  0.80525423    -0.35300
O3284       O  0.62699965  0.70915385  0.80958548    -0.39600
C3285       C  0.57020424  0.71816593  0.11495276    -0.13300
C3286       C  0.58394835  0.69518570  0.11976099     0.17100
C3287       C  0.61305695  0.70025410  0.10033315     0.03400
C3288       C  0.62803831  0.72778381  0.07671776    -0.11800
C3289       C  0.61524853  0.75168410  0.07235657    -0.02800
C3290       C  0.58578354  0.74651371  0.09186282     0.02700
C3291       C  0.57092225  0.66906927  0.14775380     0.09500
N3292       N  0.63038302  0.68038370  0.10708369     0.65900
H3293       H  0.65088385  0.73124873  0.06262139     0.18800
N3294       N  0.57173187  0.77004178  0.08909505     0.76300
H3295       H  0.54798642  0.71481069  0.13001935     0.10300
C3296       C  0.57449643  0.68196424  0.18035126     0.04000
C3297       C  0.56547408  0.65817900  0.20656270    -0.04700
C3298       C  0.55196427  0.62036568  0.20235126    -0.23100
C3299       C  0.54421960  0.60661434  0.16911339     0.13200
C3300       C  0.55568124  0.63146976  0.14229798    -0.12300
N3301       N  0.58999506  0.71986997  0.18757123     0.64900
H3302       H  0.57173522  0.67054008  0.23082855     0.12800
N3303       N  0.01501651  0.56776418  0.16589045     0.61500
H3304       H  0.55110844  0.62142456  0.11688935     0.08900
O3305       O  0.54267644  0.75946752  0.07324336    -0.39900
O3306       O  0.58495388  0.79853675  0.10684356    -0.39100
O3307       O  0.62717162  0.65614830  0.08698456    -0.39100
O3308       O  0.65214106  0.68998758  0.13128835    -0.36800
O3309       O  0.00802602  0.55438321  0.13680543    -0.37700
O3310       O  0.99625768  0.54794813  0.18934362    -0.33900
O3311       O  0.57049023  0.73102148  0.19959450    -0.35300
O3312       O  0.62387862  0.74063824  0.18792266    -0.39600
C3313       C  0.58339991  0.97010109  0.86081889    -0.13300
C3314       C  0.60282805  0.95248069  0.85716072     0.17100
C3315       C  0.61848016  0.95337627  0.82652589     0.03400
C3316       C  0.61304067  0.97012129  0.79979084    -0.11800
C3317       C  0.59272620  0.98740990  0.80240652    -0.02800
C3318       C  0.57878213  0.98828724  0.83400544     0.02700
C3319       C  0.60729736  0.93314595  0.88508564     0.09500
N3320       N  0.64134946  0.93868182  0.82253019     0.65900
H3321       H  0.62551307  0.97017452  0.77642161     0.18800
N3322       N  0.56004620  0.00719548  0.83951013     0.76300
H3323       H  0.57181214  0.96963024  0.88474378     0.10300
C3324       C  0.62680538  0.95195319  0.91383556     0.04000
C3325       C  0.63808455  0.93495320  0.93602271    -0.04700
C3326       C  0.62954632  0.89899139  0.93041117    -0.23100
C3327       C  0.60674443  0.87901173  0.90333973     0.13200
C3328       C  0.59606396  0.89632649  0.88083655    -0.12300
N3329       N  0.63676872  0.98879050  0.92004487     0.64900
H3330       H  0.65422071  0.95029601  0.95746004     0.12800
N3331       N  0.59556091  0.84178288  0.89743035     0.61500
H3332       H  0.58023820  0.88144005  0.85908609     0.08900
O3333       O  0.55620336  0.01589296  0.86861453    -0.39900
O3334       O  0.54323399  0.01102030  0.81592723    -0.39100
O3335       O  0.63303904  0.91330696  0.80174979    -0.39100
O3336       O  0.67190894  0.95403872  0.83667967    -0.36800
O3337       O  0.56544127  0.81705878  0.90811386    -0.37700
O3338       O  0.61230972  0.83385548  0.87667984    -0.33900
O3339       O  0.62057348  0.99588609  0.94211582    -0.35300
O3340       O  0.66469933  0.01434634  0.90687973    -0.39600
C3341       C  0.89255685  0.91834018  0.86668748    -0.13300
C3342       C  0.85530301  0.89702933  0.86079118     0.17100
C3343       C  0.84280681  0.87914997  0.82996924     0.03400
C3344       C  0.86742535  0.88453669  0.80521670    -0.11800
C3345       C  0.90481308  0.90808951  0.80979494    -0.02800
C3346       C  0.91744048  0.92421955  0.84149235     0.02700
C3347       C  0.82958957  0.89531332  0.88598561     0.09500
N3348       N  0.80524830  0.85388056  0.82403294     0.65900
H3349       H  0.85716916  0.86981814  0.78214179     0.18800
N3350       N  0.95469555  0.95103877  0.84663333     0.76300
H3351       H  0.90220341  0.93225462  0.89037807     0.10300
C3352       C  0.83024263  0.88464555  0.91879435     0.04000
C3353       C  0.80368961  0.88052097  0.94098882    -0.04700
C3354       C  0.77607543  0.88673458  0.93121800    -0.23100
C3355       C  0.77693617  0.89990090  0.89909435     0.13200
C3356       C  0.80368999  0.90419752  0.87683977    -0.12300
N3357       N  0.85666884  0.87633651  0.92957570     0.64900
H3358       H  0.80410667  0.87125775  0.96585885     0.12800
N3359       N  0.74981312  0.90702345  0.88805395     0.61500
H3360       H  0.80375132  0.91372110  0.85197844     0.08900
O3361       O  0.96740034  0.96105435  0.87569027    -0.39900
O3362       O  0.97169425  0.97130527  0.82277492    -0.39100
O3363       O  0.78890263  0.85946579  0.80100143    -0.39100
O3364       O  0.79004076  0.82346847  0.83816026    -0.36800
O3365       O  0.75612037  0.93914785  0.88877776    -0.37700
O3366       O  0.72245208  0.88263870  0.87246916    -0.33900
O3367       O  0.87994038  0.89628783  0.95120243    -0.35300
O3368       O  0.85364319  0.84653881  0.92110316    -0.39600
C3369       C  0.57682901  0.96203521  0.13813070    -0.13300
C3370       C  0.61027759  0.96441407  0.14180817     0.17100
C3371       C  0.63141338  0.98258197  0.17040592     0.03400
C3372       C  0.61758498  0.99573475  0.19474843    -0.11800
C3373       C  0.58065304  0.98466967  0.19482697    -0.02800
C3374       C  0.56102789  0.97064967  0.16453600     0.02700
C3375       C  0.62206016  0.94729546  0.11590264     0.09500
N3376       N  0.66412102  0.98295390  0.17783473     0.65900
H3377       H  0.63295443  0.00657365  0.21761208     0.18800
N3378       N  0.52547596  0.96516625  0.15984593     0.76300
H3379       H  0.56203462  0.95142724  0.11500422     0.10300
C3380       C  0.59857904  0.91146316  0.10385051     0.04000
C3381       C  0.61027750  0.89598134  0.08010221    -0.04700
C3382       C  0.64537518  0.91498638  0.06757275    -0.23100
C3383       C  0.66911692  0.95105196  0.07914978     0.13200
C3384       C  0.65721144  0.96668429  0.10301803    -0.12300
N3385       N  0.56298347  0.88934591  0.11631798     0.64900
H3386       H  0.59163230  0.86825481  0.07193121     0.12800
N3387       N  0.70475657  0.97276844  0.06610921     0.61500
H3388       H  0.67539394  0.99445855  0.11108649     0.08900
O3389       O  0.50958533  0.95463728  0.13199728    -0.39900
O3390       O  0.51074145  0.97335463  0.18246161    -0.39100
O3391       O  0.68943475  0.00956570  0.19356155    -0.39100
O3392       O  0.66463259  0.95393071  0.17525220    -0.36800
O3393       O  0.70883734  0.98053416  0.03564385    -0.37700
O3394       O  0.73135691  0.98951263  0.08575063    -0.33900
O3395       O  0.53680301  0.88429445  0.09830707    -0.35300
O3396       O  0.55773588  0.86607160  0.13791020    -0.39600
C3397       C  0.82777654  0.93230357  0.10348844    -0.13300
C3398       C  0.83250979  0.90459134  0.11630898     0.17100
C3399       C  0.80975192  0.86871699  0.10318800     0.03400
C3400       C  0.78269052  0.86147658  0.08017017    -0.11800
C3401       C  0.77694208  0.88856662  0.06871364    -0.02800
C3402       C  0.80055565  0.92475955  0.07983834     0.02700
C3403       C  0.85602758  0.91245225  0.14679084     0.09500
N3404       N  0.81370756  0.83874215  0.11148542     0.65900
H3405       H  0.76591501  0.83377667  0.07100597     0.18800
N3406       N  0.79617061  0.95383765  0.06897876     0.76300
H3407       H  0.84415328  0.95986686  0.11292679     0.10300
C3408       C  0.89022863  0.94478929  0.15198970     0.04000
C3409       C  0.90650964  0.95373313  0.18411338    -0.04700
C3410       C  0.89043845  0.92995561  0.21087850    -0.23100
C3411       C  0.85870720  0.89580447  0.20403373     0.13200
C3412       C  0.84125189  0.88869637  0.17337102    -0.12300
N3413       N  0.90886883  0.96853782  0.12502903     0.64900
H3414       H  0.93127996  0.97952361  0.18827035     0.12800
N3415       N  0.84295723  0.86768093  0.22814052     0.61500
H3416       H  0.81468130  0.86478052  0.17128947     0.08900
O3417       O  0.80762719  0.96750034  0.04078955    -0.39900
O3418       O  0.78829962  0.97068405  0.08987331    -0.39100
O3419       O  0.79191369  0.81588297  0.13193611    -0.39100
O3420       O  0.82668051  0.82762551  0.08955646    -0.36800
O3421       O  0.81599778  0.86316947  0.24428246    -0.37700
O3422       O  0.84742513  0.84105644  0.22466109    -0.33900
O3423       O  0.91767029  0.00142808  0.12677595    -0.35300
O3424       O  0.92272805  0.95866536  0.10290338    -0.39600
loop_ 
_geom_bond_atom_site_label_1 
_geom_bond_atom_site_label_2 
_geom_bond_distance 
_geom_bond_site_symmetry_2 
_ccdc_geom_bond_type 
O1          Cr19   1.992   1_554  S
O1            C9   1.264       .  A
O2          Cr19   2.002   1_554  S
O2            C3   1.266       .  A
C3            O4   1.264       .  A
C3          C814   1.492       .  S
O4          Cr20   1.995   1_554  S
O5          Cr20   1.999   1_554  S
O5            C6   1.263       .  A
C6            O7   1.270       .  A
C6          C833   1.490       .  S
O7          Cr21   1.992   1_554  S
O8          Cr21   2.004   1_554  S
O8            C9   1.265       .  A
C9          C721   1.495       .  S
O10         Cr19   1.999       .  S
O10          C18   1.265       .  A
O11         Cr19   1.981       .  S
O11          C12   1.260       .  A
C12          O13   1.263       .  A
C12         C758   1.480       .  S
O13         Cr20   1.988       .  S
O14         Cr20   1.998       .  S
O14          C15   1.262       .  A
C15          O16   1.259       .  A
C15         C786   1.475       .  S
O16         Cr21   1.978       .  S
O17         Cr21   2.005       .  S
O17          C18   1.264       .  A
C18         C693   1.497       .  S
Cr19         O22   1.773       .  S
Cr20         O22   1.780       .  S
Cr21         O22   1.770       .  S
O23         Cr41   1.983       .  S
O23          C31   1.264       .  A
O24         Cr41   1.997       .  S
O24          C25   1.262       .  A
C25          O26   1.261       .  A
C25         C590   1.480       .  S
O26         Cr42   1.993       .  S
O27         Cr42   2.013       .  S
O27          C28   1.266       .  A
C28          O29   1.268       .  A
C28         C534   1.502       .  S
O29         Cr43   2.001   1_556  S
O30         Cr43   2.028   1_556  S
O30          C31   1.270       .  A
C31         C609   1.497       .  S
O32         Cr41   1.992   1_554  S
O32          C40   1.262       .  A
O33         Cr41   1.982   1_554  S
O33          C34   1.261       .  A
C34          O35   1.271       .  A
C34         C646   1.493       .  S
O35         Cr42   2.018   1_554  S
O36         Cr42   1.992   1_554  S
O36          C37   1.263       .  A
C37          O38   1.269       .  A
C37         C553   1.497       .  S
O38         Cr43   2.020       .  S
O39         Cr43   2.006       .  S
O39          C40   1.267       .  A
C40         C674   1.485       .  S
Cr41         O44   1.776       .  S
Cr42         O44   1.775       .  S
Cr43         O44   1.772   1_554  S
C45          N51   1.516       .  S
C45         C902   1.512   1_545  A
C45        C1762   1.489       .  A
C46          N79   1.492       .  S
C46         C901   1.511       .  A
C46        C1759   1.477       .  A
C47          N86   1.526       .  S
C47        C1758   1.481       .  A
C47         C904   1.463   1_655  A
C48         N914   1.474       .  S
C48          C49   1.476   1_565  A
C48         C903   1.464   1_455  A
C49          N65   1.496       .  S
C49          C50   1.476       .  A
C50        N1784   1.514       .  S
C50        C1757   1.484   1_455  A
N51          C52   1.399       .  A
N51         C911   1.388       .  A
C52         C562   1.510       .  S
C52          C53   1.377       .  A
C53         C910   1.334       .  A
C53          H56   1.080       .  S
C54          C55   1.372       .  A
C54         C909   1.331       .  A
C54          H57   1.084       .  S
C55         C497   1.478       .  S
C55         N907   1.385       .  A
N58         C904   1.476       .  S
N58          C59   1.380       .  A
N58         C918   1.380       .  A
C59         C805   1.501       .  S
C59          C60   1.377       .  A
C60         C917   1.348       .  A
C60          H63   1.079       .  S
C61          C62   1.374       .  A
C61         C916   1.348       .  A
C61          H64   1.083       .  S
C62         C478   1.498       .  S
C62         N914   1.378       .  A
N65          C69   1.388       .  A
N65          C66   1.381       .  A
C66         C637   1.512       .  S
C66          C67   1.381       .  A
C67          C68   1.354       .  A
C67          H70   1.083       .  S
C68          C69   1.372       .  A
C68          H71   1.081       .  S
C69         C441   1.521       .  S
N72        C1762   1.503       .  S
N72          C73   1.409       .  A
N72        C1788   1.403       .  A
C73         C413   1.518       .  S
C73          C74   1.365       .  A
C74        C1787   1.330       .  A
C74          H77   1.083       .  S
C75          C76   1.385       .  A
C75        C1786   1.349       .  A
C75          H78   1.081       .  S
C76         C730   1.532       .  S
C76        N1784   1.395       .  A
N79          C83   1.395       .  A
N79          C80   1.379       .  A
C80         C842   1.505       .  S
C80          C81   1.369       .  A
C81          C82   1.354       .  A
C81          H84   1.083       .  S
C82          C83   1.373       .  A
C82          H85   1.076       .  S
C83         C385   1.513       .  S
N86          C87   1.403       .  A
N86        C1802   1.399       .  A
C87         C366   1.516   1_655  S
C87          C88   1.370       .  A
C88        C1801   1.342       .  A
C88          H91   1.081       .  S
C89          C90   1.370       .  A
C89        C1800   1.342       .  A
C89          H92   1.084       .  S
C90         C665   1.509       .  S
C90        N1798   1.396       .  A
O93        Cr111   2.003       .  S
O93         C101   1.265       .  A
O94        Cr111   1.994       .  S
O94          C95   1.260       .  A
C95          O96   1.261       .  A
C95         C329   1.485       .  S
O96        Cr112   2.008       .  S
O97        Cr112   1.996       .  S
O97          C98   1.267       .  A
C98          O99   1.267       .  A
C98         C282   1.474       .  S
O99        Cr113   2.002       .  S
O100       Cr113   1.991       .  S
O100        C101   1.263       .  A
C101        C301   1.488       .  S
O102       Cr111   1.975       .  S
O102        C110   1.261       .  A
O103       Cr111   2.013       .  S
O103        C104   1.268       .  A
C104        O105   1.265       .  A
C104        C394   1.493       .  S
O105       Cr112   1.986       .  S
O106       Cr112   1.998       .  S
O106        C107   1.261       .  A
C107        O108   1.262       .  A
C107        C422   1.486       .  S
O108       Cr113   2.000       .  S
O109       Cr113   2.001       .  S
O109        C110   1.263       .  A
C110        C469   1.489       .  S
Cr111       O114   1.775       .  S
Cr112       O114   1.774       .  S
Cr113       O114   1.782       .  S
O115       Cr133   1.982       .  S
O115        C123   1.261       .  A
O116       Cr133   2.020       .  S
O116        C117   1.269       .  A
C117        O118   1.260       .  A
C117        C198   1.487       .  S
O118       Cr134   1.970       .  S
O119       Cr134   2.015       .  S
O119        C120   1.265       .  A
C120        O121   1.263       .  A
C120        C226   1.477       .  S
O121       Cr135   1.982       .  S
O122       Cr135   2.006       .  S
O122        C123   1.261       .  A
C123        C254   1.489       .  S
O124       Cr133   2.006       .  S
O124        C132   1.267       .  A
O125       Cr133   1.984       .  S
O125        C126   1.260       .  A
C126        O127   1.268       .  A
C126        C450   1.506       .  S
O127       Cr134   2.032       .  S
O128       Cr134   1.975       .  S
O128        C129   1.264       .  A
C129        O130   1.265       .  A
C129        C357   1.485       .  S
O130       Cr135   2.011       .  S
O131       Cr135   1.969       .  S
O131        C132   1.263       .  A
C132        C506   1.466       .  S
Cr133       O136   1.778       .  S
Cr134       O136   1.778       .  S
Cr135       O136   1.784       .  S
C137        N150   1.513       .  S
C137        C994   1.476       .  A
C137       C1854   1.486   1_565  A
C138        N178   1.483       .  S
C138        C993   1.482       .  A
C138       C1851   1.464       .  A
C139        N171   1.516       .  S
C139       C1850   1.464   1_455  A
C139        C996   1.482       .  A
C140        N999   1.499       .  S
C140        C141   1.505       .  A
C140        C995   1.486   1_545  A
C141        N164   1.517       .  S
C141        C142   1.471   1_455  A
C142       N1869   1.493       .  S
C142       C1849   1.478   1_545  A
N143        C996   1.509       .  S
N143        C144   1.390       .  A
N143       C1003   1.387       .  A
C144        C749   1.505       .  S
C144        C145   1.380       .  A
C145       C1002   1.350       .  A
C145        H148   1.085       .  S
C146        C147   1.386       .  A
C146       C1001   1.345       .  A
C146        H149   1.084       .  S
C147        C310   1.502       .  S
C147        N999   1.384       .  A
N150        C151   1.405       .  A
N150       C1010   1.392       .  A
C151        C525   1.533       .  S
C151        C152   1.374       .  A
C152       C1009   1.343       .  A
C152        H155   1.082       .  S
C153        C154   1.372       .  A
C153       C1008   1.333       .  A
C153        H156   1.071       .  S
C154        C245   1.507       .  S
C154       N1006   1.387       .  A
N157       C1854   1.495       .  S
N157        C158   1.384       .  A
N157       C1873   1.385       .  A
C158        C273   1.508       .  S
C158        C159   1.381       .  A
C159       C1872   1.347       .  A
C159        H162   1.077       .  S
C160        C161   1.368       .  A
C160       C1871   1.349       .  A
C160        H163   1.083       .  S
C161        C702   1.505   1_655  S
C161       N1869   1.388       .  A
N164        C168   1.386       .  A
N164        C165   1.393       .  A
C165        C581   1.547       .  S
C165        C166   1.393       .  A
C166        C167   1.333       .  A
C166        H169   1.081       .  S
C167        C168   1.372       .  A
C167        H170   1.085       .  S
C168        C189   1.504       .  S
N171        C172   1.391       .  A
N171       C1887   1.408       .  A
C172        C217   1.515       .  S
C172        C173   1.374       .  A
C173       C1886   1.347       .  A
C173        H176   1.083       .  S
C174        C175   1.376       .  A
C174       C1885   1.349       .  A
C174        H177   1.082       .  S
C175        C618   1.542       .  S
C175       N1883   1.408       .  A
N178        C182   1.383       .  A
N178        C179   1.385       .  A
C179        C777   1.502       .  S
C179        C180   1.380       .  A
C180        C181   1.343       .  A
C180        H183   1.083       .  S
C181        C182   1.372       .  A
C181        H184   1.079       .  S
C182        C338   1.501       .  S
C185        C186   1.397       .  A
C185        C190   1.405       .  A
C185        H195   1.079       .  S
C186        C191   1.502       .  S
C186        C187   1.415       .  A
C187        N192   1.431       .  S
C187        C188   1.402       .  A
C188        C189   1.405       .  A
C188        H193   1.078       .  S
C189        C190   1.433       .  A
C190        N194   1.432       .  S
C191        C196   1.422       .  A
C191        C200   1.408       .  A
N192        O207   1.262       .  A
N192        O208   1.259       .  A
N194        O205   1.257       .  A
N194        O206   1.263       .  A
C196        N201   1.435       .  S
C196        C197   1.406       .  A
C197        C198   1.405       .  A
C197        H202   1.084       .  S
C198        C199   1.409       .  A
C199        N203   1.429       .  S
C199        C200   1.401       .  A
C200        H204   1.082       .  S
N201        O211   1.261       .  A
N201        O212   1.262       .  A
N203        O209   1.262       .  A
N203        O210   1.262       .  A
C213        C214   1.381       .  A
C213        C218   1.393       .  A
C213        H223   1.085       .  S
C214        C219   1.486       .  S
C214        C215   1.411       .  A
C215        N220   1.434       .  S
C215        C216   1.419       .  A
C216        C217   1.404       .  A
C216        H221   1.063       .  S
C217        C218   1.426       .  A
C218        N222   1.417   1_455  S
C219        C224   1.417       .  A
C219        C228   1.401       .  A
N220        O235   1.260       .  A
N220        O236   1.262       .  A
N222        O233   1.257       .  A
N222       O1946   1.264   1_655  A
C224        N229   1.431       .  S
C224        C225   1.399       .  A
C225        C226   1.397       .  A
C225        H230   1.084       .  S
C226        C227   1.415       .  A
C227        N231   1.430       .  S
C227        C228   1.405       .  A
C228        H232   1.084       .  S
N229        O239   1.262       .  A
N229        O240   1.260       .  A
N231        O237   1.262       .  A
N231        O238   1.262       .  A
O234       N1934   1.262       .  A
C241        C242   1.387       .  A
C241        C246   1.385       .  A
C241        H251   1.086       .  S
C242        C247   1.488       .  S
C242        C243   1.416       .  A
C243        N248   1.428       .  S
C243        C244   1.419       .  A
C244        C245   1.409       .  A
C244       H1105   1.083       .  S
C245        C246   1.438       .  A
C246        N250   1.436       .  S
C247        C252   1.410       .  A
C247        C256   1.410       .  A
N248        O264   1.261       .  A
N248       O1119   1.261       .  A
H249       C1100   1.074       .  S
N250        O261   1.262       .  A
N250        O262   1.262       .  A
C252        N257   1.427       .  S
C252        C253   1.401       .  A
C253        C254   1.402       .  A
C253        H258   1.084       .  S
C254        C255   1.414       .  A
C255        N259   1.431       .  S
C255        C256   1.409       .  A
C256        H260   1.084       .  S
N257        O267   1.262       .  A
N257        O268   1.260       .  A
N259        O265   1.262       .  A
N259        O266   1.262       .  A
O263       N1104   1.261       .  A
C269        C270   1.403       .  A
C269        C274   1.411       .  A
C269        H279   1.077       .  S
C270        C275   1.505       .  S
C270        C271   1.414       .  A
C271        N276   1.430       .  S
C271        C272   1.402       .  A
C272        C273   1.411       .  A
C272       H1989   1.082       .  S
C273        C274   1.419       .  A
C274        N278   1.435       .  S
C275        C280   1.424       .  A
C275        C284   1.413       .  A
N276        O292   1.261       .  A
N276       O2003   1.263       .  A
H277       C1984   1.080       .  S
N278        O289   1.257       .  A
N278        O290   1.263       .  A
C280        N285   1.431       .  S
C280        C281   1.401       .  A
C281        C282   1.397       .  A
C281        H286   1.085       .  S
C282        C283   1.404       .  A
C283        N287   1.429       .  S
C283        C284   1.405       .  A
C284        H288   1.083       .  S
N285        O295   1.262       .  A
N285        O296   1.262       .  A
N287        O293   1.262       .  A
N287        O294   1.262       .  A
O291       N1988   1.262       .  A
C297        C298   1.406       .  A
C297        C302   1.402       .  A
C297        H307   1.084       .  S
C298        C303   1.500       .  S
C298        C299   1.416       .  A
C299        N304   1.429   1_545  S
C299        C300   1.407       .  A
C300        C301   1.404       .  A
C300        H305   1.084       .  S
C301        C302   1.412       .  A
C302        N306   1.429       .  S
C303        C308   1.419       .  A
C303        C312   1.404       .  A
N304        O319   1.261       .  A
N304        O320   1.262       .  A
N306        O317   1.261       .  A
N306        O318   1.262       .  A
C308        N313   1.446       .  S
C308        C309   1.414   1_545  A
C309        C310   1.416   1_565  A
C309        H314   1.083       .  S
C310        C311   1.419       .  A
C311       N1171   1.439       .  S
C311        C312   1.410       .  A
C312        H316   1.083       .  S
N313        O323   1.262       .  A
N313        O324   1.263   1_545  A
N315       C1167   1.436       .  S
N315        O321   1.261       .  A
N315        O322   1.263       .  A
C325        C326   1.406       .  A
C325        C330   1.405       .  A
C325        H335   1.082       .  S
C326        C331   1.507       .  S
C326        C327   1.424       .  A
C327        N332   1.432       .  S
C327        C328   1.403       .  A
C328        C329   1.398       .  A
C328        H333   1.083       .  S
C329        C330   1.412       .  A
C330        N334   1.429       .  S
C331        C336   1.418       .  A
C331        C340   1.395       .  A
N332        O347   1.262       .  A
N332        O348   1.262       .  A
N334        O345   1.262       .  A
N334        O346   1.262       .  A
C336        N341   1.433       .  S
C336        C337   1.417       .  A
C337        C338   1.405       .  A
C337        H342   1.075       .  S
C338        C339   1.427       .  A
C339        N343   1.427       .  S
C339        C340   1.397       .  A
C340        H344   1.083       .  S
N341        O351   1.262       .  A
N341        O352   1.262       .  A
N343        O349   1.262       .  A
N343        O350   1.260       .  A
C353        C354   1.401       .  A
C353        C358   1.404       .  A
C353        H363   1.084       .  S
C354        C359   1.485       .  S
C354        C355   1.420       .  A
C355        N360   1.431       .  S
C355        C356   1.395       .  A
C356        C357   1.400       .  A
C356        H361   1.084       .  S
C357        C358   1.417       .  A
C358        N362   1.429       .  S
C359        C364   1.411       .  A
C359        C368   1.382       .  A
N360        O375   1.262       .  A
N360        O376   1.262   1_455  A
N362        O373   1.262       .  A
N362        O374   1.262       .  A
C364        N369   1.434       .  S
C364        C365   1.420       .  A
C365        C366   1.406       .  A
C365        H370   1.066   1_455  S
C366        C367   1.432       .  A
C367        N371   1.424       .  S
C367        C368   1.389       .  A
C368        H372   1.084       .  S
N369        O379   1.262       .  A
N369        O380   1.262   1_455  A
N371        O377   1.262       .  A
N371        O378   1.261   1_455  A
C381        C382   1.394       .  A
C381        C386   1.403       .  A
C381        H391   1.085       .  S
C382        C387   1.485       .  S
C382        C383   1.404       .  A
C383        N388   1.429       .  S
C383        C384   1.406       .  A
C384        C385   1.415       .  A
C384        H389   1.069       .  S
C385        C386   1.424       .  A
C386        N390   1.423       .  S
C387        C392   1.409       .  A
C387        C396   1.401       .  A
N388        O403   1.262       .  A
N388        O404   1.262       .  A
N390        O401   1.261       .  A
N390        O402   1.259       .  A
C392        N397   1.426       .  S
C392        C393   1.401       .  A
C393        C394   1.404       .  A
C393        H398   1.084       .  S
C394        C395   1.418       .  A
C395        N399   1.429       .  S
C395        C396   1.405       .  A
C396        H400   1.084       .  S
N397        O407   1.259       .  A
N397        O408   1.261       .  A
N399        O405   1.262       .  A
N399        O406   1.261       .  A
C409        C410   1.394       .  A
C409        C414   1.399       .  A
C409        H419   1.081       .  S
C410        C415   1.503       .  S
C410        C411   1.418       .  A
C411        N416   1.443       .  S
C411        C412   1.423       .  A
C412        C413   1.409       .  A
C412        H417   1.074       .  S
C413        C414   1.443       .  A
C414        N418   1.436       .  S
C415        C420   1.418       .  A
C415        C424   1.410       .  A
N416        O431   1.259       .  A
N416        O432   1.263       .  A
N418        O429   1.259       .  A
N418        O430   1.262       .  A
C420        N425   1.430       .  S
C420        C421   1.401       .  A
C421        C422   1.402       .  A
C421        H426   1.085       .  S
C422        C423   1.410       .  A
C423        N427   1.429       .  S
C423        C424   1.409       .  A
C424        H428   1.084       .  S
N425        O435   1.262       .  A
N425        O436   1.260       .  A
N427        O433   1.262       .  A
N427        O434   1.262       .  A
C437        C438   1.397       .  A
C437        C442   1.404       .  A
C437        H447   1.083       .  S
C438        C443   1.508       .  S
C438        C439   1.423       .  A
C439        N444   1.444       .  S
C439        C440   1.424       .  A
C440        C441   1.406       .  A
C440        H445   1.074       .  S
C441        C442   1.436       .  A
C442        N446   1.436       .  S
C443        C448   1.416       .  A
C443        C452   1.408       .  A
N444        O459   1.262       .  A
N444        O460   1.262       .  A
N446        O457   1.261       .  A
N446        O458   1.263       .  A
C448        N453   1.429       .  S
C448        C449   1.405       .  A
C449        C450   1.406       .  A
C449        H454   1.084       .  S
C450        C451   1.416       .  A
C451        N455   1.427       .  S
C451        C452   1.414       .  A
C452        H456   1.084       .  S
N453        O463   1.262       .  A
N453        O464   1.261       .  A
N455        O461   1.262       .  A
N455        O462   1.262       .  A
C465        C466   1.403       .  A
C465        C470   1.404       .  A
C465        H475   1.083       .  S
C466        C471   1.489       .  S
C466        C467   1.406       .  A
C467        N472   1.422       .  S
C467        C468   1.396       .  A
C468        C469   1.402       .  A
C468        H473   1.081       .  S
C469        C470   1.415       .  A
C470        N474   1.427       .  S
C471        C476   1.402       .  A
C471        C480   1.404       .  A
N472        O487   1.260       .  A
N472        O488   1.261       .  A
N474        O485   1.262       .  A
N474        O486   1.262       .  A
C476        N481   1.429       .  S
C476        C477   1.395       .  A
C477        C478   1.416   1_545  A
C477        H482   1.082   1_545  S
C478        C479   1.422   1_565  A
C479       N1339   1.439       .  S
C479        C480   1.413       .  A
C480        H484   1.082       .  S
N481        O491   1.262       .  A
N481        O492   1.262       .  A
N483       C1335   1.438       .  S
N483        O489   1.258       .  A
N483        O490   1.262       .  A
C493        C494   1.403       .  A
C493        C498   1.410       .  A
C493        H503   1.083       .  S
C494        C499   1.477       .  S
C494        C495   1.401       .  A
C495        N500   1.430       .  S
C495        C496   1.393       .  A
C496        C497   1.416       .  A
C496        H501   1.085       .  S
C497        C498   1.411       .  A
C498       N1358   1.438       .  S
C499        C504   1.416       .  A
C499        C508   1.398       .  A
N500        O515   1.262       .  A
N500        O516   1.262       .  A
N502       C1354   1.433       .  S
N502        O513   1.262       .  A
N502        O514   1.262       .  A
C504        N509   1.428       .  S
C504        C505   1.399       .  A
C505        C506   1.397       .  A
C505        H510   1.084       .  S
C506        C507   1.408       .  A
C507        N511   1.428       .  S
C507        C508   1.398       .  A
C508        H512   1.081       .  S
N509        O519   1.262       .  A
N509        O520   1.262       .  A
N511        O517   1.262       .  A
N511        O518   1.260       .  A
C521        C522   1.389       .  A
C521        C526   1.403       .  A
C521        H531   1.084       .  S
C522        C527   1.499       .  S
C522        C523   1.413       .  A
C523        N528   1.441       .  S
C523        C524   1.419   1_545  A
C524        C525   1.404       .  A
C524       H1385   1.055       .  S
C525        C526   1.436   1_565  A
C526        N530   1.423       .  S
C527        C532   1.413       .  A
C527        C536   1.403       .  A
N528        O544   1.261       .  A
N528       O1399   1.261   1_545  A
H529       C1380   1.072       .  S
N530        O541   1.263       .  A
N530        O542   1.262   1_545  A
C532        N537   1.429       .  S
C532        C533   1.406       .  A
C533        C534   1.407       .  A
C533        H538   1.084       .  S
C534        C535   1.422       .  A
C535        N539   1.430       .  S
C535        C536   1.407       .  A
C536        H540   1.083   1_545  S
N537        O547   1.262       .  A
N537        O548   1.260       .  A
N539        O545   1.261       .  A
N539        O546   1.262       .  A
O543       N1384   1.262       .  A
C549        C550   1.406       .  A
C549        C554   1.402       .  A
C549        H559   1.084       .  S
C550        C555   1.500       .  S
C550        C551   1.418       .  A
C551        N556   1.429       .  S
C551        C552   1.413       .  A
C552        C553   1.407       .  A
C552        H557   1.084       .  S
C553        C554   1.414       .  A
C554        N558   1.430       .  S
C555        C560   1.416       .  A
C555        C564   1.391       .  A
N556        O571   1.262       .  A
N556        O572   1.262       .  A
N558        O569   1.261       .  A
N558        O570   1.262       .  A
C560        N565   1.430   1_545  S
C560        C561   1.419       .  A
C561        C562   1.413       .  A
C561       H1422   1.081   1_545  S
C562        C563   1.435       .  A
C563        N567   1.435       .  S
C563        C564   1.392       .  A
C564        H568   1.086       .  S
N565        O576   1.261       .  A
N565       O1431   1.260       .  A
H566       C1417   1.082       .  S
N567        O573   1.256       .  A
N567        O574   1.263       .  A
O575       N1421   1.260       .  A
C577        C578   1.394       .  A
C577        C582   1.411       .  A
C577        H587   1.083       .  S
C578        C583   1.485       .  S
C578        C579   1.397       .  A
C579        N584   1.429       .  S
C579        C580   1.397       .  A
C580        C581   1.425       .  A
C580        H585   1.079       .  S
C581        C582   1.424       .  A
C582        N586   1.420       .  S
C583        C588   1.409       .  A
C583        C592   1.406       .  A
N584        O599   1.262       .  A
N584        O600   1.262       .  A
N586        O597   1.264       .  A
N586        O598   1.249       .  A
C588        N593   1.429       .  S
C588        C589   1.398       .  A
C589        C590   1.404       .  A
C589        H594   1.084       .  S
C590        C591   1.411       .  A
C591        N595   1.429       .  S
C591        C592   1.405       .  A
C592        H596   1.084       .  S
N593        O603   1.262       .  A
N593        O604   1.262       .  A
N595        O601   1.262       .  A
N595        O602   1.262       .  A
C605        C606   1.403       .  A
C605        C610   1.409       .  A
C605        H615   1.084       .  S
C606        C611   1.494       .  S
C606        C607   1.410       .  A
C607        N612   1.427       .  S
C607        C608   1.403       .  A
C608        C609   1.406       .  A
C608        H613   1.084       .  S
C609        C610   1.420       .  A
C610        N614   1.429       .  S
C611        C616   1.405       .  A
C611        C620   1.386       .  A
N612        O627   1.262       .  A
N612        O628   1.260       .  A
N614        O625   1.262       .  A
N614        O626   1.262       .  A
C616        N621   1.431       .  S
C616        C617   1.413       .  A
C617        C618   1.408       .  A
C617        H622   1.065       .  S
C618        C619   1.439       .  A
C619        N623   1.422       .  S
C619        C620   1.404       .  A
C620        H624   1.086       .  S
N621        O631   1.263       .  A
N621        O632   1.262       .  A
N623        O629   1.263       .  A
N623        O630   1.262       .  A
C633        C634   1.404       .  A
C633        C638   1.409       .  A
C633        H643   1.083       .  S
C634        C639   1.504       .  S
C634        C635   1.411       .  A
C635        N640   1.429       .  S
C635        C636   1.404       .  A
C636        C637   1.408       .  A
C636        H641   1.070       .  S
C637        C638   1.412       .  A
C638        N642   1.426       .  S
C639        C644   1.415       .  A
C639        C648   1.407       .  A
N640        O655   1.262       .  A
N640        O656   1.262       .  A
N642        O653   1.263       .  A
N642        O654   1.257       .  A
C644        N649   1.427       .  S
C644        C645   1.399       .  A
C645        C646   1.402       .  A
C645        H650   1.084       .  S
C646        C647   1.417       .  A
C647        N651   1.429       .  S
C647        C648   1.409       .  A
C648        H652   1.082       .  S
N649        O659   1.262       .  A
N649        O660   1.261       .  A
N651        O657   1.262       .  A
N651        O658   1.262       .  A
C661        C662   1.386       .  A
C661        C666   1.402       .  A
C661        H671   1.084       .  S
C662        C667   1.494       .  S
C662        C663   1.404       .  A
C663        N668   1.416       .  S
C663        C664   1.404       .  A
C664        C665   1.402       .  A
C664        H669   1.070       .  S
C665        C666   1.436       .  A
C666       N2382   1.422       .  S
C667        C672   1.408       .  A
C667        C676   1.411       .  A
N668        O683   1.261       .  A
N668        O684   1.260       .  A
N670       C2378   1.422       .  S
N670        O681   1.261       .  A
N670        O682   1.263   1_655  A
C672        N677   1.432       .  S
C672        C673   1.404       .  A
C673        C674   1.408       .  A
C673        H678   1.084       .  S
C674        C675   1.408       .  A
C675        N679   1.429       .  S
C675        C676   1.405       .  A
C676        H680   1.084       .  S
N677        O687   1.262       .  A
N677        O688   1.262       .  A
N679        O685   1.262       .  A
N679        O686   1.262       .  A
C689        C690   1.405       .  A
C689        C694   1.411       .  A
C689        H699   1.084       .  S
C690        C695   1.494       .  S
C690        C691   1.412       .  A
C691        N696   1.429       .  S
C691        C692   1.397       .  A
C692        C693   1.406       .  A
C692        H697   1.084       .  S
C693        C694   1.417       .  A
C694        N698   1.427       .  S
C695        C700   1.419       .  A
C695        C704   1.391       .  A
N696        O711   1.262       .  A
N696        O712   1.261   1_455  A
N698        O709   1.261       .  A
N698        O710   1.262       .  A
C700        N705   1.444       .  S
C700        C701   1.422       .  A
C701        C702   1.409       .  A
C701        H706   1.079       .  S
C702        C703   1.417       .  A
C703        N707   1.424   1_455  S
C703        C704   1.395       .  A
C704        H708   1.084       .  S
N705        O715   1.263       .  A
N705        O716   1.263       .  A
N707        O713   1.258       .  A
N707        O714   1.262       .  A
C717        C718   1.406       .  A
C717        C722   1.405       .  A
C717        H727   1.084       .  S
C718        C723   1.490       .  S
C718        C719   1.406       .  A
C719        N724   1.429       .  S
C719        C720   1.401       .  A
C720        C721   1.410       .  A
C720        H725   1.083       .  S
C721        C722   1.415       .  A
C722        N726   1.429       .  S
C723        C728   1.396       .  A
C723        C732   1.408       .  A
N724        O739   1.262       .  A
N724        O740   1.261       .  A
N726        O737   1.262       .  A
N726        O738   1.262       .  A
C728        N733   1.431       .  S
C728        C729   1.386       .  A
C729        C730   1.422       .  A
C729        H734   1.072       .  S
C730        C731   1.426       .  A
C731       N2447   1.438       .  S
C731        C732   1.425       .  A
C732        H736   1.083       .  S
N733        O743   1.262       .  A
N733        O744   1.262       .  A
N735       C2443   1.436       .  S
N735        O741   1.262       .  A
N735        O742   1.258       .  A
C745        C746   1.394       .  A
C745        C750   1.401       .  A
C745        H755   1.084       .  S
C746        C751   1.471       .  S
C746        C747   1.402       .  A
C747        N752   1.430       .  S
C747        C748   1.396       .  A
C748        C749   1.417       .  A
C748        H753   1.078       .  S
C749        C750   1.411       .  A
C750        N754   1.417       .  S
C751        C756   1.406       .  A
C751        C760   1.401       .  A
N752        O767   1.262       .  A
N752        O768   1.262       .  A
N754        O765   1.264       .  A
N754        O766   1.255       .  A
C756        N761   1.432       .  S
C756        C757   1.395       .  A
C757        C758   1.407       .  A
C757        H762   1.084       .  S
C758        C759   1.414       .  A
C759        N763   1.429       .  S
C759        C760   1.400       .  A
C760        H764   1.085       .  S
N761        O771   1.262       .  A
N761        O772   1.262       .  A
N763        O769   1.262       .  A
N763        O770   1.262       .  A
C773        C774   1.400       .  A
C773        C778   1.409       .  A
C773        H783   1.083       .  S
C774        C779   1.476       .  S
C774        C775   1.399       .  A
C775        N780   1.430       .  S
C775        C776   1.389       .  A
C776        C777   1.414       .  A
C776        H781   1.074       .  S
C777        C778   1.419       .  A
C778        N782   1.428       .  S
C779        C784   1.403       .  A
C779        C788   1.407       .  A
N780        O795   1.262       .  A
N780        O796   1.262       .  A
N782        O793   1.263       .  A
N782        O794   1.256       .  A
C784        N789   1.430       .  S
C784        C785   1.394       .  A
C785        C786   1.407       .  A
C785        H790   1.084       .  S
C786        C787   1.408       .  A
C787        N791   1.429       .  S
C787        C788   1.402       .  A
C788        H792   1.083       .  S
N789        O799   1.262       .  A
N789        O800   1.262       .  A
N791        O797   1.262       .  A
N791        O798   1.262       .  A
C801        C802   1.405       .  A
C801        C806   1.411       .  A
C801        H811   1.082       .  S
C802        C807   1.505       .  S
C802        C803   1.411       .  A
C803        N808   1.432       .  S
C803        C804   1.405       .  A
C804        C805   1.414       .  A
C804        H809   1.081       .  S
C805        C806   1.422       .  A
C806        N810   1.442       .  S
C807        C812   1.416       .  A
C807        C816   1.409       .  A
N808        O823   1.262       .  A
N808        O824   1.262       .  A
N810        O821   1.262   1_455  A
N810        O822   1.260   1_455  A
C812        N817   1.430       .  S
C812        C813   1.400       .  A
C813        C814   1.404       .  A
C813        H818   1.084       .  S
C814        C815   1.414       .  A
C815        N819   1.430       .  S
C815        C816   1.409       .  A
C816        H820   1.081       .  S
N817        O827   1.262       .  A
N817        O828   1.262       .  A
N819        O825   1.262       .  A
N819        O826   1.262       .  A
C829        C830   1.407       .  A
C829        C834   1.407       .  A
C829        H839   1.082       .  S
C830        C835   1.511       .  S
C830        C831   1.428       .  A
C831        N836   1.428       .  S
C831        C832   1.397       .  A
C832        C833   1.395       .  A
C832        H837   1.084       .  S
C833        C834   1.418       .  A
C834        N838   1.429       .  S
C835        C840   1.426       .  A
C835        C844   1.393       .  A
N836        O851   1.262       .  A
N836        O852   1.262       .  A
N838        O849   1.262       .  A
N838        O850   1.261       .  A
C840        N845   1.430       .  S
C840        C841   1.421       .  A
C841        C842   1.407       .  A
C841        H846   1.083       .  S
C842        C843   1.427       .  A
C843        N847   1.430       .  S
C843        C844   1.391       .  A
C844        H848   1.079       .  S
N845        O855   1.262       .  A
N845        O856   1.261       .  A
N847        O853   1.262       .  A
N847        O854   1.263       .  A
O857       Cr875   1.983   1_554  S
O857        C865   1.259       .  A
O858       Cr875   2.017   1_554  S
O858        C859   1.271       .  A
C859        O860   1.261       .  A
C859       C1670   1.484       .  S
O860       Cr876   1.976   1_554  S
O861       Cr876   2.000   1_554  S
O861        C862   1.262       .  A
C862        O863   1.266       .  A
C862       C1689   1.478       .  S
O863       Cr877   1.977       .  S
O864       Cr877   2.009       .  S
O864        C865   1.264       .  A
C865       C1577   1.494       .  S
O866       Cr875   2.018       .  S
O866        C874   1.271       .  A
O867       Cr875   1.974       .  S
O867        C868   1.256       .  A
C868        O869   1.260       .  A
C868       C1614   1.470       .  S
O869       Cr876   1.986       .  S
O870       Cr876   1.991       .  S
O870        C871   1.263       .  A
C871        O872   1.264       .  A
C871       C1642   1.484       .  S
O872       Cr877   1.995   1_556  S
O873       Cr877   1.979   1_556  S
O873        C874   1.262       .  A
C874       C1549   1.492       .  S
Cr875       O878   1.770       .  S
Cr876       O878   1.781       .  S
Cr877       O878   1.767   1_554  S
O879       Cr897   1.983       .  S
O879        C887   1.264       .  A
O880       Cr897   2.001       .  S
O880        C881   1.261       .  A
C881        O882   1.262       .  A
C881       C1446   1.481       .  S
O882       Cr898   2.001   1_556  S
O883       Cr898   1.998   1_556  S
O883        C884   1.263       .  A
C884        O885   1.267       .  A
C884       C1390   1.491       .  S
O885       Cr899   1.993   1_556  S
O886       Cr899   2.038   1_556  S
O886        C887   1.271       .  A
C887       C1465   1.503       .  S
O888       Cr897   1.991   1_554  S
O888        C896   1.263       .  A
O889       Cr897   1.972   1_554  S
O889        C890   1.260       .  A
C890        O891   1.267       .  A
C890       C1502   1.474       .  S
O891       Cr898   2.003       .  S
O892       Cr898   2.000       .  S
O892        C893   1.263       .  A
C893        O894   1.270       .  A
C893       C1409   1.507       .  S
O894       Cr899   2.034       .  S
O895       Cr899   2.009       .  S
O895        C896   1.268       .  A
C896       C1530   1.488       .  S
Cr897       O900   1.776   1_556  S
Cr898       O900   1.779       .  S
Cr899       O900   1.776       .  S
C901        N907   1.506       .  S
C901       C2618   1.486       .  A
C902        N935   1.488       .  S
C902       C2615   1.474       .  A
C903        N942   1.527       .  S
C903       C2614   1.475       .  A
C904        C905   1.469       .  A
C905        N921   1.487       .  S
C905        C906   1.472       .  A
C906       N2640   1.518       .  S
C906       C2613   1.485   1_455  A
N907        C908   1.399       .  A
C908       C1418   1.513       .  S
C908        C909   1.380       .  A
C909        H912   1.084       .  S
C910        C911   1.366       .  A
C910        H913   1.085       .  S
C911       C1353   1.483       .  S
N914        C915   1.379       .  A
C915       C1661   1.498       .  S
C915        C916   1.378       .  A
C916        H919   1.079       .  S
C917        C918   1.372       .  A
C917        H920   1.083       .  S
C918       C1334   1.505       .  S
N921        C925   1.385       .  A
N921        C922   1.377       .  A
C922       C1493   1.500       .  S
C922        C923   1.379       .  A
C923        C924   1.352       .  A
C923        H926   1.083       .  S
C924        C925   1.377       .  A
C924        H927   1.078       .  S
C925       C1297   1.519       .  S
N928       C2618   1.520       .  S
N928       C2644   1.397       .  A
N928        C929   1.393       .  A
C929       C1269   1.503       .  S
C929        C930   1.361       .  A
C930       C2643   1.346       .  A
C930        H933   1.082       .  S
C931       C2642   1.340       .  A
C931        C932   1.390       .  A
C931        H934   1.080       .  S
C932       C1586   1.540       .  S
C932       N2640   1.397       .  A
N935        C939   1.395       .  A
N935        C936   1.379       .  A
C936       C1698   1.501       .  S
C936        C937   1.365       .  A
C937        C938   1.350       .  A
C937        H940   1.083       .  S
C938        C939   1.374       .  A
C938        H941   1.072       .  S
C939       C1241   1.515       .  S
N942       C2658   1.399       .  A
N942        C943   1.404       .  A
C943       C1222   1.517   1_655  S
C943        C944   1.368       .  A
C944       C2657   1.340       .  A
C944        H947   1.079       .  S
C945       C2656   1.339       .  A
C945        C946   1.372       .  A
C945        H948   1.084       .  S
C946       C1521   1.515       .  S
C946       N2654   1.399       .  A
O949       Cr967   1.983       .  S
O949        C957   1.263       .  A
O950       Cr967   2.007       .  S
O950        C951   1.263       .  A
C951        O952   1.259       .  A
C951       C1185   1.477       .  S
O952       Cr968   1.971       .  S
O953       Cr968   2.023       .  S
O953        C954   1.266       .  A
C954        O955   1.260       .  A
C954       C1138   1.489       .  S
O955       Cr969   1.988       .  S
O956       Cr969   2.026       .  S
O956        C957   1.272       .  A
C957       C1157   1.504       .  S
O958       Cr967   2.007       .  S
O958        C966   1.266       .  A
O959       Cr967   1.992       .  S
O959        C960   1.264       .  A
C960        O961   1.270       .  A
C960       C1250   1.499       .  S
O961       Cr968   2.019       .  S
O962       Cr968   1.971       .  S
O962        C963   1.260       .  A
C963        O964   1.269       .  A
C963       C1278   1.494       .  S
O964       Cr969   2.017       .  S
O965       Cr969   1.992       .  S
O965        C966   1.260       .  A
C966       C1325   1.497       .  S
Cr967       O970   1.777       .  S
Cr968       O970   1.773       .  S
Cr969       O970   1.777       .  S
O971       Cr989   1.988       .  S
O971        C979   1.260       .  A
O972       Cr989   2.036       .  S
O972        C973   1.271       .  A
C973        O974   1.259       .  A
C973       C1054   1.484       .  S
O974       Cr990   1.952       .  S
O975       Cr990   2.025       .  S
O975        C976   1.271       .  A
C976        O977   1.266       .  A
C976       C1082   1.486       .  S
O977       Cr991   1.982       .  S
O978       Cr991   2.020       .  S
O978        C979   1.264       .  A
C979       C1110   1.497       .  S
O980       Cr989   2.026       .  S
O980        C988   1.274       .  A
O981       Cr989   1.974       .  S
O981        C982   1.259       .  A
C982        O983   1.268       .  A
C982       C1306   1.499       .  S
O983       Cr990   2.032       .  S
O984       Cr990   1.978       .  S
O984        C985   1.263       .  A
C985        O986   1.263       .  A
C985       C1213   1.486       .  S
O986       Cr991   2.009       .  S
O987       Cr991   1.956       .  S
O987        C988   1.259       .  A
C988       C1362   1.481       .  S
Cr989       O992   1.778       .  S
Cr990       O992   1.774       .  S
Cr991       O992   1.777       .  S
C993       N1006   1.505       .  S
C993       C2710   1.480       .  A
C994       N1034   1.485       .  S
C994       C2707   1.471       .  A
C995       N1027   1.519       .  S
C995       C2706   1.481   1_455  A
C996        C997   1.517       .  A
C997       N1020   1.505       .  S
C997        C998   1.478   1_455  A
C998       N2725   1.507       .  S
C998       C2705   1.480       .  A
N999       C1000   1.388       .  A
C1000      C1605   1.498   1_545  S
C1000      C1001   1.383       .  A
C1001      H1004   1.084       .  S
C1002      C1003   1.383       .  A
C1002      H1005   1.084       .  S
C1003      C1166   1.507       .  S
N1006      C1007   1.392       .  A
C1007      C1381   1.500       .  S
C1007      C1008   1.363       .  A
C1008      H1011   1.081       .  S
C1009      C1010   1.371       .  A
C1009      H1012   1.081       .  S
C1010      C1101   1.509       .  S
N1013      C2710   1.508       .  S
N1013      C2729   1.401       .  A
N1013      C1014   1.401       .  A
C1014      C1129   1.521       .  S
C1014      C1015   1.379       .  A
C1015      C2728   1.346       .  A
C1015      H1018   1.078       .  S
C1016      C2727   1.344       .  A
C1016      C1017   1.372       .  A
C1016      H1019   1.082       .  S
C1017      C1558   1.515   1_655  S
C1017      N2725   1.399       .  A
N1020      C1024   1.394       .  A
N1020      C1021   1.395       .  A
C1021      C1437   1.539       .  S
C1021      C1022   1.387       .  A
C1022      C1023   1.338       .  A
C1022      H1025   1.083       .  S
C1023      C1024   1.373       .  A
C1023      H1026   1.085       .  S
C1024      C1045   1.516       .  S
N1027      C2743   1.405       .  A
N1027      C1028   1.398       .  A
C1028      C1073   1.528       .  S
C1028      C1029   1.375       .  A
C1029      C2742   1.346       .  A
C1029      H1032   1.083       .  S
C1030      C2741   1.345       .  A
C1030      C1031   1.370       .  A
C1030      H1033   1.082       .  S
C1031      C1474   1.532       .  S
C1031      N2739   1.406       .  A
N1034      C1038   1.379       .  A
N1034      C1035   1.380       .  A
C1035      C1633   1.488       .  S
C1035      C1036   1.375       .  A
C1036      C1037   1.344       .  A
C1036      H1039   1.082       .  S
C1037      C1038   1.375       .  A
C1037      H1040   1.081       .  S
C1038      C1194   1.492       .  S
C1041      C1042   1.382       .  A
C1041      C1046   1.388       .  A
C1041      H1051   1.079       .  S
C1042      C1047   1.503       .  S
C1042      C1043   1.425       .  A
C1043      N1048   1.441       .  S
C1043      C1044   1.428       .  A
C1044      C1045   1.413       .  A
C1044      H1049   1.080       .  S
C1045      C1046   1.431       .  A
C1046      N1050   1.421       .  S
C1047      C1052   1.427       .  A
C1047      C1056   1.412       .  A
N1048      O1063   1.263       .  A
N1048      O1064   1.262       .  A
N1050      O1061   1.261       .  A
N1050      O1062   1.261       .  A
C1052      N1057   1.435       .  S
C1052      C1053   1.393       .  A
C1053      C1054   1.398       .  A
C1053      H1058   1.085       .  S
C1054      C1055   1.410       .  A
C1055      N1059   1.428       .  S
C1055      C1056   1.411       .  A
C1056      H1060   1.084       .  S
N1057      O1067   1.262       .  A
N1057      O1068   1.263       .  A
N1059      O1065   1.262       .  A
N1059      O1066   1.262       .  A
C1069      C1070   1.380       .  A
C1069      C1074   1.390       .  A
C1069      H1079   1.085       .  S
C1070      C1075   1.492       .  S
C1070      C1071   1.415       .  A
C1071      N1076   1.435       .  S
C1071      C1072   1.424       .  A
C1072      C1073   1.408       .  A
C1072      H1077   1.068       .  S
C1073      C1074   1.433       .  A
C1074      N1078   1.418       .  S
C1075      C1080   1.420       .  A
C1075      C1084   1.401       .  A
N1076      O1091   1.261       .  A
N1076      O1092   1.262       .  A
N1078      O1089   1.262   1_455  A
N1078      O2802   1.263       .  A
C1080      N1085   1.431       .  S
C1080      C1081   1.401       .  A
C1081      C1082   1.399       .  A
C1081      H1086   1.084       .  S
C1082      C1083   1.417       .  A
C1083      N1087   1.428       .  S
C1083      C1084   1.406       .  A
C1084      H1088   1.084       .  S
N1085      O1095   1.262       .  A
N1085      O1096   1.260       .  A
N1087      O1093   1.262       .  A
N1087      O1094   1.261       .  A
O1090      N2790   1.263       .  A
C1097      C1098   1.382       .  A
C1097      C1102   1.396       .  A
C1097      H1107   1.085       .  S
C1098      C1103   1.490       .  S
C1098      C1099   1.410       .  A
C1099      N1104   1.429       .  S
C1099      C1100   1.418       .  A
C1100      C1101   1.408       .  A
C1101      C1102   1.427       .  A
C1102      N1106   1.418       .  S
C1103      C1108   1.410       .  A
C1103      C1112   1.403       .  A
N1104      O1120   1.261       .  A
N1106      O1117   1.263       .  A
N1106      O1118   1.260   1_565  A
C1108      N1113   1.428       .  S
C1108      C1109   1.404       .  A
C1109      C1110   1.404       .  A
C1109      H1114   1.084       .  S
C1110      C1111   1.420       .  A
C1111      N1115   1.429       .  S
C1111      C1112   1.409       .  A
C1112      H1116   1.084       .  S
N1113      O1123   1.262       .  A
N1113      O1124   1.260       .  A
N1115      O1121   1.262       .  A
N1115      O1122   1.262       .  A
C1125      C1126   1.393       .  A
C1125      C1130   1.406       .  A
C1125      H1135   1.084       .  S
C1126      C1131   1.514       .  S
C1126      C1127   1.419       .  A
C1127      N1132   1.433       .  S
C1127      C1128   1.421       .  A
C1128      C1129   1.408       .  A
C1128      H2845   1.082       .  S
C1129      C1130   1.429       .  A
C1130      N1134   1.424       .  S
C1131      C1136   1.420       .  A
C1131      C1140   1.412       .  A
N1132      O2859   1.263       .  A
N1132      O1148   1.262       .  A
H1133      C2840   1.082   1_455  S
N1134      O1145   1.256       .  A
N1134      O1146   1.261       .  A
C1136      N1141   1.428       .  S
C1136      C1137   1.407       .  A
C1137      C1138   1.400       .  A
C1137      H1142   1.084       .  S
C1138      C1139   1.409       .  A
C1139      N1143   1.428       .  S
C1139      C1140   1.410       .  A
C1140      H1144   1.083       .  S
N1141      O1151   1.261       .  A
N1141      O1152   1.262       .  A
N1143      O1149   1.262       .  A
N1143      O1150   1.262       .  A
O1147      N2844   1.263       .  A
C1153      C1154   1.407       .  A
C1153      C1158   1.404       .  A
C1153      H1163   1.084       .  S
C1154      C1159   1.506       .  S
C1154      C1155   1.417       .  A
C1155      N1160   1.430       .  S
C1155      C1156   1.410       .  A
C1156      C1157   1.409       .  A
C1156      H1161   1.083       .  S
C1157      C1158   1.417       .  A
C1158      N1162   1.430       .  S
C1159      C1164   1.412       .  A
C1159      C1168   1.402       .  A
N1160      O1175   1.261       .  A
N1160      O1176   1.262       .  A
N1162      O1173   1.262       .  A
N1162      O1174   1.262       .  A
C1164      N1169   1.434       .  S
C1164      C1165   1.414       .  A
C1165      C1166   1.417       .  A
C1165      H1170   1.078       .  S
C1166      C1167   1.418       .  A
C1167      C1168   1.412       .  A
C1168      H1172   1.083       .  S
N1169      O1179   1.263       .  A
N1169      O1180   1.262       .  A
N1171      O1177   1.259       .  A
N1171      O1178   1.263       .  A
C1181      C1182   1.400       .  A
C1181      C1186   1.402       .  A
C1181      H1191   1.081       .  S
C1182      C1187   1.475       .  S
C1182      C1183   1.407       .  A
C1183      N1188   1.430       .  S
C1183      C1184   1.394       .  A
C1184      C1185   1.401       .  A
C1184      H1189   1.081       .  S
C1185      C1186   1.414       .  A
C1186      N1190   1.429       .  S
C1187      C1192   1.408       .  A
C1187      C1196   1.391       .  A
N1188      O1203   1.262       .  A
N1188      O1204   1.262       .  A
N1190      O1201   1.262       .  A
N1190      O1202   1.262       .  A
C1192      N1197   1.434       .  S
C1192      C1193   1.407       .  A
C1193      C1194   1.401       .  A
C1193      H1198   1.072       .  S
C1194      C1195   1.426       .  A
C1195      N1199   1.429       .  S
C1195      C1196   1.397       .  A
C1196      H1200   1.084       .  S
N1197      O1207   1.260       .  A
N1197      O1208   1.262       .  A
N1199      O1205   1.262       .  A
N1199      O1206   1.261       .  A
C1209      C1210   1.398       .  A
C1209      C1214   1.403       .  A
C1209      H1219   1.084       .  S
C1210      C1215   1.481       .  S
C1210      C1211   1.415       .  A
C1211      N1216   1.430       .  S
C1211      C1212   1.397       .  A
C1212      C1213   1.403       .  A
C1212      H1217   1.084       .  S
C1213      C1214   1.419       .  A
C1214      N1218   1.428       .  S
C1215      C1220   1.405       .  A
C1215      C1224   1.380       .  A
N1216      O1231   1.262       .  A
N1216      O1232   1.262   1_455  A
N1218      O1229   1.262       .  A
N1218      O1230   1.261       .  A
C1220      N1225   1.429       .  S
C1220      C1221   1.417       .  A
C1221      C1222   1.402       .  A
C1221      H1226   1.056   1_455  S
C1222      C1223   1.435       .  A
C1223      N1227   1.420       .  S
C1223      C1224   1.388       .  A
C1224      H1228   1.085       .  S
N1225      O1235   1.261       .  A
N1225      O1236   1.262   1_455  A
N1227      O1233   1.262       .  A
N1227      O1234   1.262   1_455  A
C1237      C1238   1.400       .  A
C1237      C1242   1.410       .  A
C1237      H1247   1.084       .  S
C1238      C1243   1.495       .  S
C1238      C1239   1.402       .  A
C1239      N1244   1.428       .  S
C1239      C1240   1.403       .  A
C1240      C1241   1.413       .  A
C1240      H1245   1.068       .  S
C1241      C1242   1.426       .  A
C1242      N1246   1.427       .  S
C1243      C1248   1.407       .  A
C1243      C1252   1.405       .  A
N1244      O1259   1.262       .  A
N1244      O1260   1.262       .  A
N1246      O1257   1.262       .  A
N1246      O1258   1.257       .  A
C1248      N1253   1.428       .  S
C1248      C1249   1.403       .  A
C1249      C1250   1.408       .  A
C1249      H1254   1.084       .  S
C1250      C1251   1.418       .  A
C1251      N1255   1.430       .  S
C1251      C1252   1.411       .  A
C1252      H1256   1.084       .  S
N1253      O1263   1.261       .  A
N1253      O1264   1.262       .  A
N1255      O1261   1.262       .  A
N1255      O1262   1.262       .  A
C1265      C1266   1.396       .  A
C1265      C1270   1.404       .  A
C1265      H1275   1.079       .  S
C1266      C1271   1.498       .  S
C1266      C1267   1.414       .  A
C1267      N1272   1.431       .  S
C1267      C1268   1.409       .  A
C1268      C1269   1.403       .  A
C1268      H1273   1.076       .  S
C1269      C1270   1.430       .  A
C1270      N1274   1.427       .  S
C1271      C1276   1.418       .  A
C1271      C1280   1.403       .  A
N1272      O1287   1.261       .  A
N1272      O1288   1.261       .  A
N1274      O1285   1.262       .  A
N1274      O1286   1.262       .  A
C1276      N1281   1.431       .  S
C1276      C1277   1.405       .  A
C1277      C1278   1.408       .  A
C1277      H1282   1.084       .  S
C1278      C1279   1.413       .  A
C1279      N1283   1.427       .  S
C1279      C1280   1.400       .  A
C1280      H1284   1.084       .  S
N1281      O1291   1.262       .  A
N1281      O1292   1.261       .  A
N1283      O1289   1.262       .  A
N1283      O1290   1.261       .  A
C1293      C1294   1.399       .  A
C1293      C1298   1.402       .  A
C1293      H1303   1.083       .  S
C1294      C1299   1.504       .  S
C1294      C1295   1.423       .  A
C1295      N1300   1.445       .  S
C1295      C1296   1.422       .  A
C1296      C1297   1.408       .  A
C1296      H1301   1.072       .  S
C1297      C1298   1.430       .  A
C1298      N1302   1.433       .  S
C1299      C1304   1.415       .  A
C1299      C1308   1.409       .  A
N1300      O1315   1.262       .  A
N1300      O1316   1.262       .  A
N1302      O1313   1.263       .  A
N1302      O1314   1.261       .  A
C1304      N1309   1.428       .  S
C1304      C1305   1.402       .  A
C1305      C1306   1.405       .  A
C1305      H1310   1.084       .  S
C1306      C1307   1.413       .  A
C1307      N1311   1.426       .  S
C1307      C1308   1.412       .  A
C1308      H1312   1.084       .  S
N1309      O1319   1.262       .  A
N1309      O1320   1.262       .  A
N1311      O1317   1.262       .  A
N1311      O1318   1.262       .  A
C1321      C1322   1.405       .  A
C1321      C1326   1.410       .  A
C1321      H1331   1.083       .  S
C1322      C1327   1.502       .  S
C1322      C1323   1.409       .  A
C1323      N1328   1.420       .  S
C1323      C1324   1.398       .  A
C1324      C1325   1.402       .  A
C1324      H1329   1.084       .  S
C1325      C1326   1.418       .  A
C1326      N1330   1.428       .  S
C1327      C1332   1.408       .  A
C1327      C1336   1.406       .  A
N1328      O1343   1.261       .  A
N1328      O1344   1.259       .  A
N1330      O1341   1.261       .  A
N1330      O1342   1.262       .  A
C1332      N1337   1.430       .  S
C1332      C1333   1.399       .  A
C1333      C1334   1.415       .  A
C1333      H1338   1.082       .  S
C1334      C1335   1.422       .  A
C1335      C1336   1.414       .  A
C1336      H1340   1.081       .  S
N1337      O1347   1.262       .  A
N1337      O1348   1.262       .  A
N1339      O1345   1.258   1_545  A
N1339      O1346   1.262       .  A
C1349      C1350   1.399       .  A
C1349      C1354   1.410   1_565  A
C1349      H1359   1.081       .  S
C1350      C1355   1.480       .  S
C1350      C1351   1.405       .  A
C1351      N1356   1.428       .  S
C1351      C1352   1.399       .  A
C1352      C1353   1.417   1_565  A
C1352      H1357   1.084   1_565  S
C1353      C1354   1.412       .  A
C1355      C1360   1.414       .  A
C1355      C1364   1.397       .  A
N1356      O1371   1.262       .  A
N1356      O1372   1.262       .  A
N1358      O1369   1.262       .  A
N1358      O1370   1.261       .  A
C1360      N1365   1.428       .  S
C1360      C1361   1.399       .  A
C1361      C1362   1.400       .  A
C1361      H1366   1.084       .  S
C1362      C1363   1.416       .  A
C1363      N1367   1.427       .  S
C1363      C1364   1.397       .  A
C1364      H1368   1.084       .  S
N1365      O1375   1.261       .  A
N1365      O1376   1.262       .  A
N1367      O1373   1.262       .  A
N1367      O1374   1.261       .  A
C1377      C1378   1.395       .  A
C1377      C1382   1.404       .  A
C1377      H1387   1.083       .  S
C1378      C1383   1.486       .  S
C1378      C1379   1.407       .  A
C1379      N1384   1.432       .  S
C1379      C1380   1.402       .  A
C1380      C1381   1.407       .  A
C1381      C1382   1.426       .  A
C1382      N1386   1.428       .  S
C1383      C1388   1.412       .  A
C1383      C1392   1.401       .  A
N1384      O1400   1.261       .  A
N1386      O1397   1.260       .  A
N1386      O1398   1.261       .  A
C1388      N1393   1.430       .  S
C1388      C1389   1.401       .  A
C1389      C1390   1.405       .  A
C1389      H1394   1.084       .  S
C1390      C1391   1.422       .  A
C1391      N1395   1.432       .  S
C1391      C1392   1.402       .  A
C1392      H1396   1.084       .  S
N1393      O1403   1.262       .  A
N1393      O1404   1.261       .  A
N1395      O1401   1.262       .  A
N1395      O1402   1.262       .  A
C1405      C1406   1.407       .  A
C1405      C1410   1.408       .  A
C1405      H1415   1.084       .  S
C1406      C1411   1.508       .  S
C1406      C1407   1.418       .  A
C1407      N1412   1.429       .  S
C1407      C1408   1.416       .  A
C1408      C1409   1.409       .  A
C1408      H1413   1.084       .  S
C1409      C1410   1.418       .  A
C1410      N1414   1.432       .  S
C1411      C1416   1.415       .  A
C1411      C1420   1.390       .  A
N1412      O1427   1.262       .  A
N1412      O1428   1.262       .  A
N1414      O1425   1.262       .  A
N1414      O1426   1.262       .  A
C1416      N1421   1.428       .  S
C1416      C1417   1.421       .  A
C1417      C1418   1.416       .  A
C1418      C1419   1.440       .  A
C1419      N1423   1.442       .  S
C1419      C1420   1.401       .  A
C1420      H1424   1.084       .  S
N1421      O1432   1.261       .  A
N1423      O1429   1.254       .  A
N1423      O1430   1.264       .  A
C1433      C1434   1.398       .  A
C1433      C1438   1.415       .  A
C1433      H1443   1.082       .  S
C1434      C1439   1.494       .  S
C1434      C1435   1.403       .  A
C1435      N1440   1.430       .  S
C1435      C1436   1.401       .  A
C1436      C1437   1.421       .  A
C1436      H1441   1.080       .  S
C1437      C1438   1.419       .  A
C1438      N1442   1.425       .  S
C1439      C1444   1.412       .  A
C1439      C1448   1.408       .  A
N1440      O1455   1.262       .  A
N1440      O1456   1.261       .  A
N1442      O1453   1.263       .  A
N1442      O1454   1.254       .  A
C1444      N1449   1.429       .  S
C1444      C1445   1.403       .  A
C1445      C1446   1.404       .  A
C1445      H1450   1.084       .  S
C1446      C1447   1.408       .  A
C1447      N1451   1.428       .  S
C1447      C1448   1.407       .  A
C1448      H1452   1.083       .  S
N1449      O1459   1.262       .  A
N1449      O1460   1.261       .  A
N1451      O1457   1.262       .  A
N1451      O1458   1.262       .  A
C1461      C1462   1.405       .  A
C1461      C1466   1.413       .  A
C1461      H1471   1.084       .  S
C1462      C1467   1.501       .  S
C1462      C1463   1.414       .  A
C1463      N1468   1.430       .  S
C1463      C1464   1.404       .  A
C1464      C1465   1.406       .  A
C1464      H1469   1.084       .  S
C1465      C1466   1.421       .  A
C1466      N1470   1.429       .  S
C1467      C1472   1.415       .  A
C1467      C1476   1.383       .  A
N1468      O1483   1.262       .  A
N1468      O1484   1.261       .  A
N1470      O1481   1.262       .  A
N1470      O1482   1.262       .  A
C1472      N1477   1.436       .  S
C1472      C1473   1.430       .  A
C1473      C1474   1.413       .  A
C1473      H1478   1.074       .  S
C1474      C1475   1.436       .  A
C1475      N1479   1.422       .  S
C1475      C1476   1.395       .  A
C1476      H1480   1.085       .  S
N1477      O1487   1.262       .  A
N1477      O1488   1.262       .  A
N1479      O1485   1.263       .  A
N1479      O1486   1.262       .  A
C1489      C1490   1.401       .  A
C1489      C1494   1.404       .  A
C1489      H1499   1.083       .  S
C1490      C1495   1.486       .  S
C1490      C1491   1.404       .  A
C1491      N1496   1.428       .  S
C1491      C1492   1.400       .  A
C1492      C1493   1.407       .  A
C1492      H1497   1.068       .  S
C1493      C1494   1.410       .  A
C1494      N1498   1.426       .  S
C1495      C1500   1.411       .  A
C1495      C1504   1.404       .  A
N1496      O1511   1.262       .  A
N1496      O1512   1.262       .  A
N1498      O1509   1.263       .  A
N1498      O1510   1.257       .  A
C1500      N1505   1.428       .  S
C1500      C1501   1.394       .  A
C1501      C1502   1.399       .  A
C1501      H1506   1.084       .  S
C1502      C1503   1.412       .  A
C1503      N1507   1.429       .  S
C1503      C1504   1.404       .  A
C1504      H1508   1.081       .  S
N1505      O1515   1.261       .  A
N1505      O1516   1.262       .  A
N1507      O1513   1.262       .  A
N1507      O1514   1.262       .  A
C1517      C1518   1.380       .  A
C1517      C1522   1.401       .  A
C1517      H1527   1.082       .  S
C1518      C1523   1.496       .  S
C1518      C1519   1.401       .  A
C1519      N1524   1.415       .  S
C1519      C1520   1.406       .  A
C1520      C1521   1.403       .  A
C1520      H1525   1.063       .  S
C1521      C1522   1.434       .  A
C1522      N3238   1.412       .  S
C1523      C1528   1.406       .  A
C1523      C1532   1.413       .  A
N1524      O1539   1.261       .  A
N1524      O1540   1.260       .  A
N1526      C3234   1.416       .  S
N1526      O1537   1.261       .  A
N1526      O1538   1.262   1_655  A
C1528      N1533   1.431       .  S
C1528      C1529   1.402       .  A
C1529      C1530   1.410       .  A
C1529      H1534   1.084       .  S
C1530      C1531   1.409       .  A
C1531      N1535   1.429       .  S
C1531      C1532   1.408       .  A
C1532      H1536   1.084       .  S
N1533      O1543   1.262       .  A
N1533      O1544   1.262       .  A
N1535      O1541   1.262       .  A
N1535      O1542   1.262       .  A
C1545      C1546   1.401       .  A
C1545      C1550   1.407       .  A
C1545      H1555   1.083       .  S
C1546      C1551   1.488       .  S
C1546      C1547   1.410       .  A
C1547      N1552   1.429       .  S
C1547      C1548   1.401       .  A
C1548      C1549   1.405       .  A
C1548      H1553   1.084       .  S
C1549      C1550   1.418       .  A
C1550      N1554   1.429       .  S
C1551      C1556   1.403       .  A
C1551      C1560   1.385       .  A
N1552      O1567   1.262       .  A
N1552      O1568   1.262       .  A
N1554      O1565   1.262       .  A
N1554      O1566   1.262       .  A
C1556      N1561   1.428       .  S
C1556      C1557   1.423       .  A
C1557      C1558   1.409       .  A
C1557      H1562   1.073       .  S
C1558      C1559   1.426       .  A
C1559      N1563   1.419   1_455  S
C1559      C1560   1.398       .  A
C1560      H1564   1.085       .  S
N1561      O1571   1.262       .  A
N1561      O1572   1.262       .  A
N1563      O1569   1.259       .  A
N1563      O1570   1.262       .  A
C1573      C1574   1.409       .  A
C1573      C1578   1.404       .  A
C1573      H1583   1.083       .  S
C1574      C1579   1.504       .  S
C1574      C1575   1.411       .  A
C1575      N1580   1.427       .  S
C1575      C1576   1.404       .  A
C1576      C1577   1.408       .  A
C1576      H1581   1.084       .  S
C1577      C1578   1.414       .  A
C1578      N1582   1.429       .  S
C1579      C1584   1.402       .  A
C1579      C1588   1.409       .  A
N1580      O1595   1.262       .  A
N1580      O1596   1.259       .  A
N1582      O1593   1.262       .  A
N1582      O1594   1.262       .  A
C1584      N1589   1.433       .  S
C1584      C1585   1.386       .  A
C1585      C1586   1.421       .  A
C1585      H1590   1.075       .  S
C1586      C1587   1.431       .  A
C1587      N3303   1.437       .  S
C1587      C1588   1.426       .  A
C1588      H1592   1.080       .  S
N1589      O1599   1.263       .  A
N1589      O1600   1.262       .  A
N1591      C3299   1.436       .  S
N1591      O1597   1.263       .  A
N1591      O1598   1.260       .  A
C1601      C1602   1.395       .  A
C1601      C1606   1.401       .  A
C1601      H1611   1.083       .  S
C1602      C1607   1.469       .  S
C1602      C1603   1.402       .  A
C1603      N1608   1.430       .  S
C1603      C1604   1.391       .  A
C1604      C1605   1.417       .  A
C1604      H1609   1.084       .  S
C1605      C1606   1.413       .  A
C1606      N1610   1.421   1_565  S
C1607      C1612   1.406       .  A
C1607      C1616   1.402       .  A
N1608      O1623   1.262       .  A
N1608      O1624   1.262       .  A
N1610      O1621   1.263       .  A
N1610      O1622   1.253       .  A
C1612      N1617   1.430       .  S
C1612      C1613   1.392       .  A
C1613      C1614   1.405       .  A
C1613      H1618   1.084       .  S
C1614      C1615   1.410       .  A
C1615      N1619   1.429       .  S
C1615      C1616   1.397       .  A
C1616      H1620   1.084       .  S
N1617      O1627   1.262       .  A
N1617      O1628   1.262   1_565  A
N1619      O1625   1.262       .  A
N1619      O1626   1.262       .  A
C1629      C1630   1.401       .  A
C1629      C1634   1.411       .  A
C1629      H1639   1.081       .  S
C1630      C1635   1.479       .  S
C1630      C1631   1.401       .  A
C1631      N1636   1.430       .  S
C1631      C1632   1.391       .  A
C1632      C1633   1.408       .  A
C1632      H1637   1.075       .  S
C1633      C1634   1.414       .  A
C1634      N1638   1.436       .  S
C1635      C1640   1.404       .  A
C1635      C1644   1.406       .  A
N1636      O1651   1.262       .  A
N1636      O1652   1.262       .  A
N1638      O1649   1.262       .  A
N1638      O1650   1.258       .  A
C1640      N1645   1.429       .  S
C1640      C1641   1.395       .  A
C1641      C1642   1.408       .  A
C1641      H1646   1.084       .  S
C1642      C1643   1.412       .  A
C1643      N1647   1.429       .  S
C1643      C1644   1.404       .  A
C1644      H1648   1.084       .  S
N1645      O1655   1.262       .  A
N1645      O1656   1.262       .  A
N1647      O1653   1.262       .  A
N1647      O1654   1.262       .  A
C1657      C1658   1.400       .  A
C1657      C1662   1.406       .  A
C1657      H1667   1.083       .  S
C1658      C1663   1.493       .  S
C1658      C1659   1.409       .  A
C1659      N1664   1.435       .  S
C1659      C1660   1.407       .  A
C1660      C1661   1.415       .  A
C1660      H1665   1.079   1_565  S
C1661      C1662   1.422       .  A
C1662      N1666   1.441       .  S
C1663      C1668   1.412       .  A
C1663      C1672   1.405       .  A
N1664      O1679   1.262   1_565  A
N1664      O1680   1.262       .  A
N1666      O1677   1.263       .  A
N1666      O1678   1.259       .  A
C1668      N1673   1.428       .  S
C1668      C1669   1.396       .  A
C1669      C1670   1.400       .  A
C1669      H1674   1.084       .  S
C1670      C1671   1.418       .  A
C1671      N1675   1.432       .  S
C1671      C1672   1.409       .  A
C1672      H1676   1.083       .  S
N1673      O1683   1.262       .  A
N1673      O1684   1.261       .  A
N1675      O1681   1.262       .  A
N1675      O1682   1.262       .  A
C1685      C1686   1.410       .  A
C1685      C1690   1.403       .  A
C1685      H1695   1.080       .  S
C1686      C1691   1.507       .  S
C1686      C1687   1.429       .  A
C1687      N1692   1.429       .  S
C1687      C1688   1.392       .  A
C1688      C1689   1.392       .  A
C1688      H1693   1.085       .  S
C1689      C1690   1.412       .  A
C1690      N1694   1.429       .  S
C1691      C1696   1.423       .  A
C1691      C1700   1.392       .  A
N1692      O1707   1.262       .  A
N1692      O1708   1.263       .  A
N1694      O1705   1.262       .  A
N1694      O1706   1.261       .  A
C1696      N1701   1.428       .  S
C1696      C1697   1.418       .  A
C1697      C1698   1.406       .  A
C1697      H1702   1.079       .  S
C1698      C1699   1.425       .  A
C1699      N1703   1.429       .  S
C1699      C1700   1.389       .  A
C1700      H1704   1.077       .  S
N1701      O1711   1.260       .  A
N1701      O1712   1.261       .  A
N1703      O1709   1.262       .  A
N1703      O1710   1.263       .  A
O1713     Cr1731   2.012   1_554  S
O1713      C1721   1.267       .  A
O1714     Cr1731   2.001   1_554  S
O1714      C1715   1.267       .  A
C1715      O1716   1.261       .  A
C1715      C2526   1.488       .  S
O1716     Cr1732   1.985   1_554  S
O1717     Cr1732   1.991   1_554  S
O1717      C1718   1.261       .  A
C1718      O1719   1.274       .  A
C1718      C2545   1.492       .  S
O1719     Cr1733   2.002   1_554  S
O1720     Cr1733   2.009   1_554  S
O1720      C1721   1.265       .  A
C1721      C2433   1.504       .  S
O1722     Cr1731   2.002       .  S
O1722      C1730   1.266       .  A
O1723     Cr1731   1.992       .  S
O1723      C1724   1.262       .  A
C1724      O1725   1.261       .  A
C1724      C2470   1.487       .  S
O1725     Cr1732   1.983       .  S
O1726     Cr1732   1.999       .  S
O1726      C1727   1.261       .  A
C1727      O1728   1.258       .  A
C1727      C2498   1.475       .  S
O1728     Cr1733   1.972       .  S
O1729     Cr1733   2.009       .  S
O1729      C1730   1.266       .  A
C1730      C2405   1.502       .  S
Cr1731     O1734   1.774       .  S
Cr1732     O1734   1.784       .  S
Cr1733     O1734   1.769       .  S
O1735     Cr1753   1.981       .  S
O1735      C1743   1.263       .  A
O1736     Cr1753   2.007       .  S
O1736      C1737   1.265       .  A
C1737      O1738   1.260       .  A
C1737      C2302   1.490       .  S
O1738     Cr1754   1.982       .  S
O1739     Cr1754   2.002       .  S
O1739      C1740   1.264       .  A
C1740      O1741   1.267       .  A
C1740      C2246   1.494       .  S
O1741     Cr1755   1.992   1_556  S
O1742     Cr1755   2.038   1_556  S
O1742      C1743   1.273       .  A
C1743      C2321   1.505       .  S
O1744     Cr1753   2.002   1_554  S
O1744      C1752   1.265       .  A
O1745     Cr1753   1.972   1_554  S
O1745      C1746   1.259       .  A
C1746      O1747   1.264       .  A
C1746      C2358   1.460       .  S
O1747     Cr1754   1.997   1_554  S
O1748     Cr1754   1.990   1_554  S
O1748      C1749   1.261       .  A
C1749      O1750   1.272       .  A
C1749      C2265   1.501       .  S
O1750     Cr1755   2.036       .  S
O1751     Cr1755   2.007       .  S
O1751      C1752   1.268       .  A
C1752      C2386   1.492       .  S
Cr1753     O1756   1.776       .  S
Cr1754     O1756   1.775       .  S
Cr1755     O1756   1.770   1_554  S
C1757      N1763   1.512       .  S
C1757      C2614   1.509   1_545  A
C1758      N1791   1.490       .  S
C1758      C2613   1.511       .  A
C1759      N1798   1.524       .  S
C1759      C2616   1.462       .  A
C1760      N2626   1.467   1_545  S
C1760      C2615   1.462   1_545  A
C1760      C1761   1.476       .  A
C1761      N1777   1.503       .  S
C1761      C1762   1.465       .  A
N1763      C2623   1.386       .  A
N1763      C1764   1.399       .  A
C1764      C2274   1.516       .  S
C1764      C1765   1.381       .  A
C1765      C2622   1.333       .  A
C1765      H1768   1.084       .  S
C1766      C2621   1.331       .  A
C1766      C1767   1.372       .  A
C1766      H1769   1.084       .  S
C1767      C2209   1.480       .  S
C1767      N2619   1.387       .  A
N1770      C2616   1.475       .  S
N1770      C2630   1.382       .  A
N1770      C1771   1.377       .  A
C1771      C2517   1.496       .  S
C1771      C1772   1.377       .  A
C1772      C2629   1.347       .  A
C1772      H1775   1.079       .  S
C1773      C2628   1.343       .  A
C1773      C1774   1.376       .  A
C1773      H1776   1.084       .  S
C1774      C2190   1.499   1_565  S
C1774      N2626   1.380       .  A
N1777      C1781   1.386       .  A
N1777      C1778   1.390       .  A
C1778      C2349   1.522       .  S
C1778      C1779   1.383       .  A
C1779      C1780   1.350       .  A
C1779      H1782   1.084       .  S
C1780      C1781   1.365       .  A
C1780      H1783   1.080       .  S
C1781      C2153   1.501       .  S
N1784      C1785   1.397       .  A
C1785      C2125   1.513       .  S
C1785      C1786   1.364       .  A
C1786      H1789   1.082       .  S
C1787      C1788   1.383       .  A
C1787      H1790   1.083       .  S
C1788      C2442   1.535       .  S
N1791      C1795   1.393       .  A
N1791      C1792   1.380       .  A
C1792      C2554   1.507       .  S
C1792      C1793   1.369       .  A
C1793      C1794   1.353       .  A
C1793      H1796   1.083       .  S
C1794      C1795   1.374       .  A
C1794      H1797   1.077       .  S
C1795      C2097   1.508       .  S
N1798      C1799   1.402       .  A
C1799      C2078   1.514       .  S
C1799      C1800   1.369       .  A
C1800      H1803   1.081       .  S
C1801      C1802   1.370       .  A
C1801      H1804   1.084       .  S
C1802      C2377   1.514       .  S
O1805     Cr1823   1.998       .  S
O1805      C1813   1.267       .  A
O1806     Cr1823   2.016       .  S
O1806      C1807   1.264       .  A
C1807      O1808   1.259       .  A
C1807      C2041   1.476       .  S
O1808     Cr1824   1.980       .  S
O1809     Cr1824   2.024       .  S
O1809      C1810   1.271       .  A
C1810      O1811   1.259       .  A
C1810      C1994   1.497       .  S
O1811     Cr1825   1.974       .  S
O1812     Cr1825   2.007       .  S
O1812      C1813   1.269       .  A
C1813      C2013   1.494       .  S
O1814     Cr1823   2.000       .  S
O1814      C1822   1.264       .  A
O1815     Cr1823   1.978       .  S
O1815      C1816   1.260       .  A
C1816      O1817   1.271       .  A
C1816      C2106   1.490       .  S
O1817     Cr1824   2.016       .  S
O1818     Cr1824   1.975       .  S
O1818      C1819   1.258       .  A
C1819      O1820   1.268       .  A
C1819      C2134   1.498       .  S
O1820     Cr1825   2.024       .  S
O1821     Cr1825   1.976       .  S
O1821      C1822   1.261       .  A
C1822      C2181   1.475       .  S
Cr1823     O1826   1.778       .  S
Cr1824     O1826   1.769       .  S
Cr1825     O1826   1.772       .  S
O1827     Cr1845   1.970       .  S
O1827      C1835   1.260       .  A
O1828     Cr1845   2.033       .  S
O1828      C1829   1.272       .  A
C1829      O1830   1.261       .  A
C1829      C1910   1.495       .  S
O1830     Cr1846   1.981       .  S
O1831     Cr1846   1.999       .  S
O1831      C1832   1.262       .  A
C1832      O1833   1.263       .  A
C1832      C1938   1.471       .  S
O1833     Cr1847   1.985       .  S
O1834     Cr1847   2.018       .  S
O1834      C1835   1.265       .  A
C1835      C1966   1.486       .  S
O1836     Cr1845   2.010       .  S
O1836      C1844   1.267       .  A
O1837     Cr1845   1.975       .  S
O1837      C1838   1.257       .  A
C1838      O1839   1.266       .  A
C1838      C2162   1.496       .  S
O1839     Cr1846   2.022       .  S
O1840     Cr1846   1.975       .  S
O1840      C1841   1.264       .  A
C1841      O1842   1.267       .  A
C1841      C2069   1.486       .  S
O1842     Cr1847   2.015       .  S
O1843     Cr1847   1.970       .  S
O1843      C1844   1.261       .  A
C1844      C2218   1.467       .  S
Cr1845     O1848   1.772       .  S
Cr1846     O1848   1.773       .  S
Cr1847     O1848   1.780       .  S
C1849      N1862   1.509       .  S
C1849      C2706   1.480       .  A
C1850      N1890   1.483       .  S
C1850      C2705   1.482       .  A
C1851      N1883   1.515       .  S
C1851      C2708   1.482       .  A
C1852      N2711   1.496   1_565  S
C1852      C2707   1.484       .  A
C1852      C1853   1.513   1_565  A
C1853      N1876   1.528       .  S
C1853      C1854   1.484       .  A
N1855      C2708   1.511       .  S
N1855      C2715   1.387       .  A
N1855      C1856   1.390       .  A
C1856      C2461   1.507       .  S
C1856      C1857   1.380       .  A
C1857      C2714   1.347       .  A
C1857      H1860   1.084       .  S
C1858      C2713   1.339       .  A
C1858      C1859   1.383       .  A
C1858      H1861   1.083       .  S
C1859      C2022   1.506       .  S
C1859      N2711   1.392       .  A
N1862      C2722   1.389       .  A
N1862      C1863   1.401       .  A
C1863      C2237   1.523       .  S
C1863      C1864   1.374       .  A
C1864      C2721   1.342       .  A
C1864      H1867   1.083       .  S
C1865      C2720   1.335       .  A
C1865      C1866   1.372       .  A
C1865      H1868   1.072       .  S
C1866      C1957   1.503       .  S
C1866      N2718   1.385       .  A
N1869      C1870   1.381       .  A
C1870      C1985   1.511       .  S
C1870      C1871   1.383       .  A
C1871      H1874   1.078       .  S
C1872      C1873   1.370       .  A
C1872      H1875   1.084       .  S
C1873      C2414   1.501       .  S
N1876      C1880   1.389       .  A
N1876      C1877   1.392       .  A
C1877      C2293   1.537       .  S
C1877      C1878   1.392       .  A
C1878      C1879   1.331       .  A
C1878      H1881   1.076       .  S
C1879      C1880   1.372       .  A
C1879      H1882   1.086       .  S
C1880      C1901   1.511       .  S
N1883      C1884   1.386       .  A
C1884      C1929   1.509       .  S
C1884      C1885   1.374       .  A
C1885      H1888   1.083       .  S
C1886      C1887   1.375       .  A
C1886      H1889   1.082       .  S
C1887      C2330   1.540       .  S
N1890      C1894   1.378       .  A
N1890      C1891   1.387       .  A
C1891      C2489   1.501       .  S
C1891      C1892   1.379       .  A
C1892      C1893   1.340       .  A
C1892      H1895   1.083       .  S
C1893      C1894   1.374       .  A
C1893      H1896   1.079       .  S
C1894      C2050   1.496       .  S
C1897      C1898   1.399       .  A
C1897      C1902   1.413       .  A
C1897      H1907   1.083       .  S
C1898      C1903   1.500       .  S
C1898      C1899   1.407       .  A
C1899      N1904   1.433       .  S
C1899      C1900   1.402       .  A
C1900      C1901   1.405       .  A
C1900      H1905   1.076       .  S
C1901      C1902   1.436       .  A
C1902      N1906   1.429       .  S
C1903      C1908   1.410       .  A
C1903      C1912   1.408       .  A
N1904      O1919   1.262       .  A
N1904      O1920   1.262       .  A
N1906      O1917   1.259       .  A
N1906      O1918   1.262       .  A
C1908      N1913   1.429       .  S
C1908      C1909   1.410       .  A
C1909      C1910   1.410       .  A
C1909      H1914   1.084       .  S
C1910      C1911   1.411       .  A
C1911      N1915   1.429       .  S
C1911      C1912   1.405       .  A
C1912      H1916   1.084       .  S
N1913      O1923   1.262       .  A
N1913      O1924   1.261       .  A
N1915      O1921   1.262       .  A
N1915      O1922   1.262       .  A
C1925      C1926   1.381       .  A
C1925      C1930   1.391       .  A
C1925      H1935   1.086       .  S
C1926      C1931   1.476       .  S
C1926      C1927   1.406       .  A
C1927      N1932   1.435       .  S
C1927      C1928   1.417       .  A
C1928      C1929   1.403       .  A
C1928      H1933   1.060       .  S
C1929      C1930   1.425       .  A
C1930      N1934   1.416       .  S
C1931      C1936   1.412       .  A
C1931      C1940   1.398       .  A
N1932      O1947   1.262       .  A
N1932      O1948   1.262       .  A
N1934      O1945   1.260       .  A
C1936      N1941   1.428       .  S
C1936      C1937   1.396       .  A
C1937      C1938   1.396       .  A
C1937      H1942   1.084       .  S
C1938      C1939   1.416       .  A
C1939      N1943   1.429       .  S
C1939      C1940   1.402       .  A
C1940      H1944   1.084       .  S
N1941      O1951   1.262       .  A
N1941      O1952   1.259       .  A
N1943      O1949   1.262       .  A
N1943      O1950   1.261       .  A
C1953      C1954   1.385       .  A
C1953      C1958   1.382       .  A
C1953      H1963   1.086       .  S
C1954      C1959   1.482       .  S
C1954      C1955   1.413       .  A
C1955      N1960   1.427       .  S
C1955      C1956   1.419       .  A
C1956      C1957   1.409       .  A
C1956      H2817   1.083       .  S
C1957      C1958   1.438       .  A
C1958      N1962   1.435       .  S
C1959      C1964   1.403       .  A
C1959      C1968   1.409       .  A
N1960      O2831   1.261       .  A
N1960      O1976   1.262       .  A
H1961      C2812   1.076       .  S
N1962      O1973   1.262       .  A
N1962      O1974   1.262       .  A
C1964      N1969   1.423       .  S
C1964      C1965   1.397       .  A
C1965      C1966   1.403       .  A
C1965      H1970   1.084       .  S
C1966      C1967   1.413       .  A
C1967      N1971   1.429       .  S
C1967      C1968   1.409       .  A
C1968      H1972   1.084       .  S
N1969      O1979   1.261       .  A
N1969      O1980   1.260       .  A
N1971      O1977   1.262       .  A
N1971      O1978   1.262       .  A
O1975      N2816   1.262       .  A
C1981      C1982   1.403       .  A
C1981      C1986   1.414       .  A
C1981      H1991   1.083       .  S
C1982      C1987   1.494       .  S
C1982      C1983   1.407       .  A
C1983      N1988   1.431       .  S
C1983      C1984   1.403       .  A
C1984      C1985   1.414       .  A
C1985      C1986   1.420       .  A
C1986      N1990   1.437       .  S
C1987      C1992   1.414       .  A
C1987      C1996   1.402       .  A
N1988      O2004   1.262   1_655  A
N1990      O2001   1.259       .  A
N1990      O2002   1.263       .  A
C1992      N1997   1.428       .  S
C1992      C1993   1.405       .  A
C1993      C1994   1.406       .  A
C1993      H1998   1.084       .  S
C1994      C1995   1.418       .  A
C1995      N1999   1.429       .  S
C1995      C1996   1.404       .  A
C1996      H2000   1.084       .  S
N1997      O2007   1.262   1_655  A
N1997      O2008   1.259   1_655  A
N1999      O2005   1.262       .  A
N1999      O2006   1.262       .  A
C2009      C2010   1.408       .  A
C2009      C2014   1.410       .  A
C2009      H2019   1.084       .  S
C2010      C2015   1.495       .  S
C2010      C2011   1.410       .  A
C2011      N2016   1.427       .  S
C2011      C2012   1.400       .  A
C2012      C2013   1.406       .  A
C2012      H2017   1.084       .  S
C2013      C2014   1.413       .  A
C2014      N2018   1.429       .  S
C2015      C2020   1.408       .  A
C2015      C2024   1.401       .  A
N2016      O2031   1.262       .  A
N2016      O2032   1.262   1_545  A
N2018      O2029   1.262       .  A
N2018      O2030   1.262       .  A
C2020      N2025   1.428   1_545  S
C2020      C2021   1.408   1_545  A
C2021      C2022   1.418   1_565  A
C2021      H2026   1.084       .  S
C2022      C2023   1.418       .  A
C2023      N2883   1.436       .  S
C2023      C2024   1.414       .  A
C2024      H2028   1.083       .  S
N2025      O2035   1.262   1_565  A
N2025      O2036   1.261       .  A
N2027      C2879   1.434       .  S
N2027      O2033   1.261       .  A
N2027      O2034   1.262       .  A
C2037      C2038   1.403       .  A
C2037      C2042   1.407       .  A
C2037      H2047   1.079       .  S
C2038      C2043   1.495       .  S
C2038      C2039   1.417       .  A
C2039      N2044   1.429       .  S
C2039      C2040   1.399       .  A
C2040      C2041   1.397       .  A
C2040      H2045   1.084       .  S
C2041      C2042   1.413       .  A
C2042      N2046   1.431       .  S
C2043      C2048   1.416       .  A
C2043      C2052   1.394       .  A
N2044      O2059   1.262       .  A
N2044      O2060   1.261       .  A
N2046      O2057   1.262       .  A
N2046      O2058   1.262       .  A
C2048      N2053   1.435       .  S
C2048      C2049   1.418       .  A
C2049      C2050   1.405       .  A
C2049      H2054   1.078       .  S
C2050      C2051   1.425       .  A
C2051      N2055   1.431       .  S
C2051      C2052   1.394       .  A
C2052      H2056   1.084       .  S
N2053      O2063   1.261       .  A
N2053      O2064   1.262       .  A
N2055      O2061   1.261       .  A
N2055      O2062   1.260       .  A
C2065      C2066   1.401       .  A
C2065      C2070   1.404       .  A
C2065      H2075   1.084       .  S
C2066      C2071   1.483       .  S
C2066      C2067   1.415       .  A
C2067      N2072   1.430       .  S
C2067      C2068   1.395       .  A
C2068      C2069   1.402       .  A
C2068      H2073   1.083       .  S
C2069      C2070   1.418       .  A
C2070      N2074   1.430       .  S
C2071      C2076   1.407       .  A
C2071      C2080   1.383       .  A
N2072      O2087   1.262       .  A
N2072      O2088   1.262       .  A
N2074      O2085   1.262       .  A
N2074      O2086   1.262       .  A
C2076      N2081   1.429       .  S
C2076      C2077   1.417       .  A
C2077      C2078   1.404       .  A
C2077      H2082   1.065       .  S
C2078      C2079   1.434       .  A
C2079      N2083   1.424       .  S
C2079      C2080   1.390       .  A
C2080      H2084   1.084       .  S
N2081      O2091   1.261       .  A
N2081      O2092   1.262       .  A
N2083      O2089   1.262       .  A
N2083      O2090   1.261       .  A
C2093      C2094   1.396       .  A
C2093      C2098   1.401       .  A
C2093      H2103   1.084       .  S
C2094      C2099   1.486       .  S
C2094      C2095   1.404       .  A
C2095      N2100   1.429       .  S
C2095      C2096   1.404       .  A
C2096      C2097   1.413       .  A
C2096      H2101   1.068       .  S
C2097      C2098   1.421       .  A
C2098      N2102   1.421       .  S
C2099      C2104   1.406       .  A
C2099      C2108   1.402       .  A
N2100      O2115   1.262       .  A
N2100      O2116   1.262       .  A
N2102      O2113   1.261       .  A
N2102      O2114   1.259       .  A
C2104      N2109   1.423       .  S
C2104      C2105   1.397       .  A
C2105      C2106   1.403       .  A
C2105      H2110   1.084       .  S
C2106      C2107   1.417       .  A
C2107      N2111   1.426       .  S
C2107      C2108   1.405       .  A
C2108      H2112   1.084       .  S
N2109      O2119   1.260       .  A
N2109      O2120   1.260       .  A
N2111      O2117   1.262       .  A
N2111      O2118   1.261       .  A
C2121      C2122   1.394       .  A
C2121      C2126   1.404       .  A
C2121      H2131   1.081       .  S
C2122      C2127   1.497       .  S
C2122      C2123   1.415       .  A
C2123      N2128   1.445       .  S
C2123      C2124   1.421   1_655  A
C2124      C2125   1.413       .  A
C2124      H2129   1.078       .  S
C2125      C2126   1.430   1_455  A
C2126      N2130   1.428   1_655  S
C2127      C2132   1.414       .  A
C2127      C2136   1.405       .  A
N2128      O2143   1.258       .  A
N2128      O2144   1.263       .  A
N2130      O2141   1.263   1_455  A
N2130      O2142   1.261       .  A
C2132      N2137   1.430       .  S
C2132      C2133   1.404       .  A
C2133      C2134   1.409       .  A
C2133      H2138   1.084       .  S
C2134      C2135   1.415       .  A
C2135      N2139   1.427       .  S
C2135      C2136   1.405       .  A
C2136      H2140   1.085       .  S
N2137      O2147   1.262       .  A
N2137      O2148   1.261   1_655  A
N2139      O2145   1.262       .  A
N2139      O2146   1.261       .  A
C2149      C2150   1.399       .  A
C2149      C2154   1.402       .  A
C2149      H2159   1.084       .  S
C2150      C2155   1.497       .  S
C2150      C2151   1.422       .  A
C2151      N2156   1.449       .  S
C2151      C2152   1.419       .  A
C2152      C2153   1.403       .  A
C2152      H2157   1.075       .  S
C2153      C2154   1.421       .  A
C2154      N2158   1.427       .  S
C2155      C2160   1.411       .  A
C2155      C2164   1.407       .  A
N2156      O2171   1.263       .  A
N2156      O2172   1.262       .  A
N2158      O2169   1.262       .  A
N2158      O2170   1.260       .  A
C2160      N2165   1.427       .  S
C2160      C2161   1.401       .  A
C2161      C2162   1.406       .  A
C2161      H2166   1.084       .  S
C2162      C2163   1.416       .  A
C2163      N2167   1.430       .  S
C2163      C2164   1.411       .  A
C2164      H2168   1.084       .  S
N2165      O2175   1.262       .  A
N2165      O2176   1.261       .  A
N2167      O2173   1.262       .  A
N2167      O2174   1.262       .  A
C2177      C2178   1.401       .  A
C2177      C2182   1.397       .  A
C2177      H2187   1.082       .  S
C2178      C2183   1.480       .  S
C2178      C2179   1.406       .  A
C2179      N2184   1.425       .  S
C2179      C2180   1.399       .  A
C2180      C2181   1.403       .  A
C2180      H2185   1.083       .  S
C2181      C2182   1.409       .  A
C2182      N2186   1.427       .  S
C2183      C2188   1.399       .  A
C2183      C2192   1.404       .  A
N2184      O2199   1.260       .  A
N2184      O2200   1.262       .  A
N2186      O2197   1.262       .  A
N2186      O2198   1.261       .  A
C2188      N2193   1.430       .  S
C2188      C2189   1.387       .  A
C2189      C2190   1.416       .  A
C2189      H2194   1.084       .  S
C2190      C2191   1.424       .  A
C2191      N3051   1.438       .  S
C2191      C2192   1.414       .  A
C2192      H2196   1.083       .  S
N2193      O2203   1.262       .  A
N2193      O2204   1.262       .  A
N2195      C3047   1.438       .  S
N2195      O2201   1.257       .  A
N2195      O2202   1.262       .  A
C2205      C2206   1.402       .  A
C2205      C2210   1.411       .  A
C2205      H2215   1.083       .  S
C2206      C2211   1.484       .  S
C2206      C2207   1.404       .  A
C2207      N2212   1.430       .  S
C2207      C2208   1.396       .  A
C2208      C2209   1.417       .  A
C2208      H2213   1.085       .  S
C2209      C2210   1.409       .  A
C2210      N3070   1.437       .  S
C2211      C2216   1.415       .  A
C2211      C2220   1.399       .  A
N2212      O2227   1.262       .  A
N2212      O2228   1.262       .  A
N2214      C3066   1.436       .  S
N2214      O2225   1.262       .  A
N2214      O2226   1.263       .  A
C2216      N2221   1.429       .  S
C2216      C2217   1.402       .  A
C2217      C2218   1.399       .  A
C2217      H2222   1.084       .  S
C2218      C2219   1.407       .  A
C2219      N2223   1.428       .  S
C2219      C2220   1.398       .  A
C2220      H2224   1.079       .  S
N2221      O2231   1.262       .  A
N2221      O2232   1.262       .  A
N2223      O2229   1.261       .  A
N2223      O2230   1.261       .  A
C2233      C2234   1.388       .  A
C2233      C2238   1.401       .  A
C2233      H2243   1.086       .  S
C2234      C2239   1.487       .  S
C2234      C2235   1.410       .  A
C2235      N2240   1.441       .  S
C2235      C2236   1.408   1_545  A
C2236      C2237   1.398       .  A
C2236      H3097   1.079       .  S
C2237      C2238   1.435   1_565  A
C2238      N2242   1.423       .  S
C2239      C2244   1.410       .  A
C2239      C2248   1.400       .  A
N2240      O3111   1.261   1_545  A
N2240      O2256   1.263       .  A
H2241      C3092   1.071       .  S
N2242      O2253   1.263       .  A
N2242      O2254   1.262   1_545  A
C2244      N2249   1.429       .  S
C2244      C2245   1.401       .  A
C2245      C2246   1.406       .  A
C2245      H2250   1.084       .  S
C2246      C2247   1.422       .  A
C2247      N2251   1.431       .  S
C2247      C2248   1.403       .  A
C2248      H2252   1.083       .  S
N2249      O2259   1.262       .  A
N2249      O2260   1.260       .  A
N2251      O2257   1.262       .  A
N2251      O2258   1.262       .  A
O2255      N3096   1.262       .  A
C2261      C2262   1.409       .  A
C2261      C2266   1.405       .  A
C2261      H2271   1.084       .  S
C2262      C2267   1.506       .  S
C2262      C2263   1.419       .  A
C2263      N2268   1.429       .  S
C2263      C2264   1.415       .  A
C2264      C2265   1.408       .  A
C2264      H2269   1.084       .  S
C2265      C2266   1.412       .  A
C2266      N2270   1.429       .  S
C2267      C2272   1.416       .  A
C2267      C2276   1.389       .  A
N2268      O2283   1.262       .  A
N2268      O2284   1.262       .  A
N2270      O2281   1.261       .  A
N2270      O2282   1.262       .  A
C2272      N2277   1.430   1_545  S
C2272      C2273   1.422       .  A
C2273      C2274   1.416       .  A
C2273      H3134   1.082   1_545  S
C2274      C2275   1.439       .  A
C2275      N2279   1.441       .  S
C2275      C2276   1.399       .  A
C2276      H2280   1.084       .  S
N2277      O3143   1.261       .  A
N2277      O2288   1.261       .  A
H2278      C3129   1.080       .  S
N2279      O2285   1.254       .  A
N2279      O2286   1.264       .  A
O2287      N3133   1.260       .  A
C2289      C2290   1.398       .  A
C2289      C2294   1.410       .  A
C2289      H2299   1.083       .  S
C2290      C2295   1.489       .  S
C2290      C2291   1.401       .  A
C2291      N2296   1.430       .  S
C2291      C2292   1.395       .  A
C2292      C2293   1.425       .  A
C2292      H2297   1.073       .  S
C2293      C2294   1.409       .  A
C2294      N2298   1.409       .  S
C2295      C2300   1.411       .  A
C2295      C2304   1.404       .  A
N2296      O2311   1.262       .  A
N2296      O2312   1.262       .  A
N2298      O2309   1.258       .  A
N2298      O2310   1.255       .  A
C2300      N2305   1.430       .  S
C2300      C2301   1.402       .  A
C2301      C2302   1.408       .  A
C2301      H2306   1.084       .  S
C2302      C2303   1.414       .  A
C2303      N2307   1.429       .  S
C2303      C2304   1.401       .  A
C2304      H2308   1.084       .  S
N2305      O2315   1.262       .  A
N2305      O2316   1.262       .  A
N2307      O2313   1.262       .  A
N2307      O2314   1.261       .  A
C2317      C2318   1.405       .  A
C2317      C2322   1.411       .  A
C2317      H2327   1.084       .  S
C2318      C2323   1.495       .  S
C2318      C2319   1.408       .  A
C2319      N2324   1.427       .  S
C2319      C2320   1.405       .  A
C2320      C2321   1.410       .  A
C2320      H2325   1.083       .  S
C2321      C2322   1.419       .  A
C2322      N2326   1.429       .  S
C2323      C2328   1.405       .  A
C2323      C2332   1.386       .  A
N2324      O2339   1.262       .  A
N2324      O2340   1.260       .  A
N2326      O2337   1.262       .  A
N2326      O2338   1.262       .  A
C2328      N2333   1.429       .  S
C2328      C2329   1.415       .  A
C2329      C2330   1.413   1_655  A
C2329      H2334   1.055   1_655  S
C2330      C2331   1.439   1_455  A
C2331      N2335   1.423       .  S
C2331      C2332   1.405       .  A
C2332      H2336   1.085       .  S
N2333      O2343   1.262   1_655  A
N2333      O2344   1.261       .  A
N2335      O2341   1.263       .  A
N2335      O2342   1.262   1_655  A
C2345      C2346   1.399       .  A
C2345      C2350   1.412       .  A
C2345      H2355   1.083       .  S
C2346      C2351   1.477       .  S
C2346      C2347   1.398       .  A
C2347      N2352   1.432       .  S
C2347      C2348   1.392       .  A
C2348      C2349   1.420       .  A
C2348      H2353   1.076       .  S
C2349      C2350   1.424       .  A
C2350      N2354   1.432       .  S
C2351      C2356   1.411       .  A
C2351      C2360   1.402       .  A
N2352      O2367   1.262       .  A
N2352      O2368   1.263       .  A
N2354      O2365   1.263       .  A
N2354      O2366   1.254       .  A
C2356      N2361   1.428       .  S
C2356      C2357   1.395       .  A
C2357      C2358   1.397       .  A
C2357      H2362   1.084       .  S
C2358      C2359   1.405       .  A
C2359      N2363   1.429       .  S
C2359      C2360   1.399       .  A
C2360      H2364   1.079       .  S
N2361      O2371   1.261       .  A
N2361      O2372   1.261       .  A
N2363      O2369   1.262       .  A
N2363      O2370   1.262       .  A
C2373      C2374   1.387       .  A
C2373      C2378   1.406       .  A
C2373      H2383   1.084       .  S
C2374      C2379   1.500       .  S
C2374      C2375   1.404       .  A
C2375      N2380   1.415       .  S
C2375      C2376   1.406       .  A
C2376      C2377   1.402       .  A
C2376      H2381   1.070       .  S
C2377      C2378   1.439       .  A
C2379      C2384   1.410       .  A
C2379      C2388   1.411       .  A
N2380      O2395   1.261       .  A
N2380      O2396   1.260       .  A
N2382      O2393   1.261       .  A
N2382      O2394   1.262       .  A
C2384      N2389   1.432       .  S
C2384      C2385   1.405       .  A
C2385      C2386   1.408       .  A
C2385      H2390   1.084       .  S
C2386      C2387   1.410       .  A
C2387      N2391   1.430       .  S
C2387      C2388   1.408       .  A
C2388      H2392   1.084       .  S
N2389      O2399   1.262       .  A
N2389      O2400   1.262       .  A
N2391      O2397   1.262       .  A
N2391      O2398   1.262       .  A
C2401      C2402   1.407       .  A
C2401      C2406   1.413       .  A
C2401      H2411   1.084       .  S
C2402      C2407   1.501       .  S
C2402      C2403   1.414       .  A
C2403      N2408   1.430       .  S
C2403      C2404   1.399       .  A
C2404      C2405   1.407       .  A
C2404      H2409   1.083       .  S
C2405      C2406   1.417       .  A
C2406      N2410   1.428       .  S
C2407      C2412   1.422       .  A
C2407      C2416   1.393       .  A
N2408      O2423   1.263       .  A
N2408      O2424   1.262       .  A
N2410      O2421   1.262       .  A
N2410      O2422   1.261       .  A
C2412      N2417   1.443       .  S
C2412      C2413   1.426       .  A
C2413      C2414   1.414       .  A
C2413      H2418   1.080       .  S
C2414      C2415   1.419       .  A
C2415      N2419   1.426       .  S
C2415      C2416   1.395       .  A
C2416      H2420   1.084       .  S
N2417      O2427   1.263       .  A
N2417      O2428   1.263       .  A
N2419      O2425   1.260       .  A
N2419      O2426   1.262       .  A
C2429      C2430   1.408       .  A
C2429      C2434   1.412       .  A
C2429      H2439   1.084       .  S
C2430      C2435   1.499       .  S
C2430      C2431   1.407       .  A
C2431      N2436   1.428       .  S
C2431      C2432   1.408       .  A
C2432      C2433   1.412       .  A
C2432      H2437   1.084       .  S
C2433      C2434   1.414       .  A
C2434      N2438   1.428       .  S
C2435      C2440   1.399       .  A
C2435      C2444   1.406       .  A
N2436      O2451   1.262       .  A
N2436      O2452   1.261       .  A
N2438      O2449   1.262       .  A
N2438      O2450   1.262       .  A
C2440      N2445   1.429       .  S
C2440      C2441   1.398       .  A
C2441      C2442   1.418       .  A
C2441      H2446   1.077       .  S
C2442      C2443   1.427       .  A
C2443      C2444   1.428       .  A
C2444      H2448   1.083       .  S
N2445      O2455   1.262       .  A
N2445      O2456   1.260       .  A
N2447      O2453   1.263       .  A
N2447      O2454   1.259   1_455  A
C2457      C2458   1.393       .  A
C2457      C2462   1.402       .  A
C2457      H2467   1.084       .  S
C2458      C2463   1.470       .  S
C2458      C2459   1.401       .  A
C2459      N2464   1.428       .  S
C2459      C2460   1.397       .  A
C2460      C2461   1.418       .  A
C2460      H2465   1.077       .  S
C2461      C2462   1.411       .  A
C2462      N2466   1.416       .  S
C2463      C2468   1.403       .  A
C2463      C2472   1.401       .  A
N2464      O2479   1.262       .  A
N2464      O2480   1.262       .  A
N2466      O2477   1.263       .  A
N2466      O2478   1.255       .  A
C2468      N2473   1.431       .  S
C2468      C2469   1.395       .  A
C2469      C2470   1.410       .  A
C2469      H2474   1.084       .  S
C2470      C2471   1.415       .  A
C2471      N2475   1.428       .  S
C2471      C2472   1.402       .  A
C2472      H2476   1.084       .  S
N2473      O2483   1.262       .  A
N2473      O2484   1.262       .  A
N2475      O2481   1.262       .  A
N2475      O2482   1.262       .  A
C2485      C2486   1.399       .  A
C2485      C2490   1.408       .  A
C2485      H2495   1.083       .  S
C2486      C2491   1.473       .  S
C2486      C2487   1.400       .  A
C2487      N2492   1.430       .  S
C2487      C2488   1.390       .  A
C2488      C2489   1.417       .  A
C2488      H2493   1.079       .  S
C2489      C2490   1.416       .  A
C2490      N2494   1.426       .  S
C2491      C2496   1.402       .  A
C2491      C2500   1.408       .  A
N2492      O2507   1.262       .  A
N2492      O2508   1.262       .  A
N2494      O2505   1.263       .  A
N2494      O2506   1.256       .  A
C2496      N2501   1.430       .  S
C2496      C2497   1.391       .  A
C2497      C2498   1.407       .  A
C2497      H2502   1.084       .  S
C2498      C2499   1.408       .  A
C2499      N2503   1.428       .  S
C2499      C2500   1.404       .  A
C2500      H2504   1.084       .  S
N2501      O2511   1.262       .  A
N2501      O2512   1.262       .  A
N2503      O2509   1.262       .  A
N2503      O2510   1.262       .  A
C2513      C2514   1.403       .  A
C2513      C2518   1.408       .  A
C2513      H2523   1.083       .  S
C2514      C2519   1.497       .  S
C2514      C2515   1.411       .  A
C2515      N2520   1.436       .  S
C2515      C2516   1.404       .  A
C2516      C2517   1.413       .  A
C2516      H2521   1.080       .  S
C2517      C2518   1.421       .  A
C2518      N2522   1.441       .  S
C2519      C2524   1.414       .  A
C2519      C2528   1.406       .  A
N2520      O2535   1.262       .  A
N2520      O2536   1.263       .  A
N2522      O2533   1.263       .  A
N2522      O2534   1.259       .  A
C2524      N2529   1.429       .  S
C2524      C2525   1.396       .  A
C2525      C2526   1.402       .  A
C2525      H2530   1.084       .  S
C2526      C2527   1.417       .  A
C2527      N2531   1.432       .  S
C2527      C2528   1.408       .  A
C2528      H2532   1.083       .  S
N2529      O2539   1.262       .  A
N2529      O2540   1.261       .  A
N2531      O2537   1.262       .  A
N2531      O2538   1.262       .  A
C2541      C2542   1.406       .  A
C2541      C2546   1.407       .  A
C2541      H2551   1.082       .  S
C2542      C2547   1.513       .  S
C2542      C2543   1.430       .  A
C2543      N2548   1.427       .  S
C2543      C2544   1.398       .  A
C2544      C2545   1.393       .  A
C2544      H2549   1.084       .  S
C2545      C2546   1.421       .  A
C2546      N2550   1.430       .  S
C2547      C2552   1.427       .  A
C2547      C2556   1.392       .  A
N2548      O2563   1.262       .  A
N2548      O2564   1.263       .  A
N2550      O2561   1.262       .  A
N2550      O2562   1.262       .  A
C2552      N2557   1.430       .  S
C2552      C2553   1.422       .  A
C2553      C2554   1.407       .  A
C2553      H2558   1.083       .  S
C2554      C2555   1.427       .  A
C2555      N2559   1.429       .  S
C2555      C2556   1.391       .  A
C2556      H2560   1.079       .  S
N2557      O2567   1.262       .  A
N2557      O2568   1.262       .  A
N2559      O2565   1.262       .  A
N2559      O2566   1.263       .  A
O2569     Cr2587   1.987       .  S
O2569      C2577   1.259       .  A
O2570     Cr2587   2.016       .  S
O2570      C2571   1.271       .  A
C2571      O2572   1.261       .  A
C2571      C3382   1.491       .  S
O2572     Cr2588   1.980   1_554  S
O2573     Cr2588   2.012   1_554  S
O2573      C2574   1.265       .  A
C2574      O2575   1.267       .  A
C2574      C3401   1.486       .  S
O2575     Cr2589   1.978       .  S
O2576     Cr2589   2.001       .  S
O2576      C2577   1.263       .  A
C2577      C3289   1.494       .  S
O2578     Cr2587   2.023   1_556  S
O2578      C2586   1.272       .  A
O2579     Cr2587   1.970   1_556  S
O2579      C2580   1.257       .  A
C2580      O2581   1.264       .  A
C2580      C3326   1.477       .  S
O2581     Cr2588   1.998       .  S
O2582     Cr2588   1.994       .  S
O2582      C2583   1.263       .  A
C2583      O2584   1.262       .  A
C2583      C3354   1.480       .  S
O2584     Cr2589   1.988   1_556  S
O2585     Cr2589   1.989   1_556  S
O2585      C2586   1.264       .  A
C2586      C3261   1.502       .  S
Cr2587     O2590   1.772   1_554  S
Cr2588     O2590   1.782       .  S
Cr2589     O2590   1.767   1_554  S
O2591     Cr2609   1.984       .  S
O2591      C2599   1.265       .  A
O2592     Cr2609   2.005       .  S
O2592      C2593   1.262       .  A
C2593      O2594   1.260       .  A
C2593      C3158   1.480       .  S
O2594     Cr2610   1.996   1_556  S
O2595     Cr2610   1.990   1_556  S
O2595      C2596   1.262       .  A
C2596      O2597   1.265       .  A
C2596      C3102   1.485       .  S
O2597     Cr2611   1.988   1_556  S
O2598     Cr2611   2.034   1_556  S
O2598      C2599   1.271       .  A
C2599      C3177   1.501       .  S
O2600     Cr2609   1.995   1_554  S
O2600      C2608   1.263       .  A
O2601     Cr2609   1.972   1_554  S
O2601      C2602   1.260       .  A
C2602      O2603   1.266       .  A
C2602      C3214   1.474       .  S
O2603     Cr2610   1.996       .  S
O2604     Cr2610   1.994       .  S
O2604      C2605   1.262       .  A
C2605      O2606   1.271       .  A
C2605      C3121   1.501       .  S
O2606     Cr2611   2.034       .  S
O2607     Cr2611   2.009       .  S
O2607      C2608   1.268       .  A
C2608      C3242   1.484       .  S
Cr2609     O2612   1.771   1_556  S
Cr2610     O2612   1.774       .  S
Cr2611     O2612   1.771       .  S
C2613      N2619   1.510       .  S
C2614      N2647   1.485       .  S
C2615      N2654   1.527       .  S
C2616      C2617   1.470       .  A
C2617      N2633   1.487       .  S
C2617      C2618   1.471       .  A
N2619      C2620   1.398       .  A
C2620      C3130   1.510       .  S
C2620      C2621   1.379       .  A
C2621      H2624   1.084       .  S
C2622      C2623   1.369       .  A
C2622      H2625   1.084       .  S
C2623      C3065   1.479       .  S
N2626      C2627   1.377       .  A
C2627      C3373   1.499       .  S
C2627      C2628   1.378       .  A
C2628      H2631   1.077       .  S
C2629      C2630   1.374       .  A
C2629      H2632   1.083       .  S
C2630      C3046   1.507       .  S
N2633      C2637   1.384       .  A
N2633      C2634   1.374       .  A
C2634      C3205   1.499       .  S
C2634      C2635   1.381       .  A
C2635      C2636   1.353       .  A
C2635      H2638   1.083       .  S
C2636      C2637   1.372       .  A
C2636      H2639   1.080       .  S
C2637      C3009   1.515       .  S
N2640      C2641   1.395       .  A
C2641      C2981   1.506       .  S
C2641      C2642   1.361       .  A
C2642      H2645   1.082       .  S
C2643      C2644   1.386       .  A
C2643      H2646   1.080       .  S
C2644      C3298   1.533       .  S
N2647      C2651   1.395       .  A
N2647      C2648   1.377       .  A
C2648      C3410   1.500       .  S
C2648      C2649   1.367       .  A
C2649      C2650   1.352       .  A
C2649      H2652   1.083       .  S
C2650      C2651   1.374       .  A
C2650      H2653   1.072       .  S
C2651      C2953   1.516       .  S
N2654      C2655   1.405       .  A
C2655      C2934   1.519       .  S
C2655      C2656   1.370       .  A
C2656      H2659   1.082       .  S
C2657      C2658   1.371       .  A
C2657      H2660   1.084       .  S
C2658      C3233   1.514       .  S
O2661     Cr2679   2.003       .  S
O2661      C2669   1.265       .  A
O2662     Cr2679   1.990       .  S
O2662      C2663   1.261       .  A
C2663      O2664   1.260       .  A
C2663      C2897   1.475       .  S
O2664     Cr2680   1.993       .  S
O2665     Cr2680   2.011       .  S
O2665      C2666   1.268       .  A
C2666      O2667   1.266       .  A
C2666      C2850   1.497       .  S
O2667     Cr2681   2.001       .  S
O2668     Cr2681   2.003       .  S
O2668      C2669   1.265       .  A
C2669      C2869   1.494       .  S
O2670     Cr2679   1.987       .  S
O2670      C2678   1.264       .  A
O2671     Cr2679   2.011       .  S
O2671      C2672   1.266       .  A
C2672      O2673   1.266       .  A
C2672      C2962   1.502       .  S
O2673     Cr2680   2.001       .  S
O2674     Cr2680   1.990       .  S
O2674      C2675   1.261       .  A
C2675      O2676   1.264       .  A
C2675      C2990   1.481       .  S
O2676     Cr2681   1.994       .  S
O2677     Cr2681   2.006       .  S
O2677      C2678   1.264       .  A
C2678      C3037   1.492       .  S
Cr2679     O2682   1.773       .  S
Cr2680     O2682   1.776       .  S
Cr2681     O2682   1.779       .  S
O2683     Cr2701   1.984       .  S
O2683      C2691   1.260       .  A
O2684     Cr2701   2.035       .  S
O2684      C2685   1.272       .  A
C2685      O2686   1.259       .  A
C2685      C2766   1.481       .  S
O2686     Cr2702   1.952       .  S
O2687     Cr2702   2.011       .  S
O2687      C2688   1.266       .  A
C2688      O2689   1.265       .  A
C2688      C2794   1.479       .  S
O2689     Cr2703   1.987       .  S
O2690     Cr2703   2.014       .  S
O2690      C2691   1.263       .  A
C2691      C2822   1.498       .  S
O2692     Cr2701   2.020       .  S
O2692      C2700   1.273       .  A
O2693     Cr2701   1.975       .  S
O2693      C2694   1.257       .  A
C2694      O2695   1.264       .  A
C2694      C3018   1.490       .  S
O2695     Cr2702   2.013       .  S
O2696     Cr2702   1.976       .  S
O2696      C2697   1.263       .  A
C2697      O2698   1.266       .  A
C2697      C2925   1.486       .  S
O2698     Cr2703   2.016       .  S
O2699     Cr2703   1.958       .  S
O2699      C2700   1.260       .  A
C2700      C3074   1.477       .  S
Cr2701     O2704   1.778       .  S
Cr2702     O2704   1.772       .  S
Cr2703     O2704   1.776       .  S
C2705      N2718   1.504       .  S
C2706      N2746   1.488       .  S
C2707      N2739   1.517       .  S
C2708      C2709   1.518       .  A
C2709      N2732   1.506       .  S
C2709      C2710   1.481       .  A
N2711      C2712   1.389       .  A
C2712      C3317   1.498   1_545  S
C2712      C2713   1.382       .  A
C2713      H2716   1.084       .  S
C2714      C2715   1.384       .  A
C2714      H2717   1.084       .  S
C2715      C2878   1.508       .  S
N2718      C2719   1.388       .  A
C2719      C3093   1.496       .  S
C2719      C2720   1.361       .  A
C2720      H2723   1.081       .  S
C2721      C2722   1.371       .  A
C2721      H2724   1.081       .  S
C2722      C2813   1.504       .  S
N2725      C2726   1.398       .  A
C2726      C2841   1.513       .  S
C2726      C2727   1.380       .  A
C2727      H2730   1.079       .  S
C2728      C2729   1.372       .  A
C2728      H2731   1.082       .  S
C2729      C3270   1.519       .  S
N2732      C2736   1.393       .  A
N2732      C2733   1.395       .  A
C2733      C3149   1.538       .  S
C2733      C2734   1.388       .  A
C2734      C2735   1.334       .  A
C2734      H2737   1.083       .  S
C2735      C2736   1.372       .  A
C2735      H2738   1.085       .  S
C2736      C2757   1.512       .  S
N2739      C2740   1.395       .  A
C2740      C2785   1.522       .  S
C2740      C2741   1.376       .  A
C2741      H2744   1.084       .  S
C2742      C2743   1.370       .  A
C2742      H2745   1.083       .  S
C2743      C3186   1.526   1_455  S
N2746      C2750   1.379       .  A
N2746      C2747   1.382       .  A
C2747      C3345   1.488       .  S
C2747      C2748   1.374       .  A
C2748      C2749   1.344       .  A
C2748      H2751   1.082       .  S
C2749      C2750   1.372       .  A
C2749      H2752   1.083       .  S
C2750      C2906   1.488       .  S
C2753      C2754   1.384       .  A
C2753      C2758   1.390       .  A
C2753      H2763   1.078       .  S
C2754      C2759   1.504       .  S
C2754      C2755   1.417       .  A
C2755      N2760   1.428       .  S
C2755      C2756   1.419       .  A
C2756      C2757   1.413       .  A
C2756      H2761   1.080       .  S
C2757      C2758   1.433       .  A
C2758      N2762   1.422       .  S
C2759      C2764   1.428       .  A
C2759      C2768   1.412       .  A
N2760      O2775   1.261       .  A
N2760      O2776   1.259       .  A
N2762      O2773   1.262       .  A
N2762      O2774   1.260       .  A
C2764      N2769   1.434       .  S
C2764      C2765   1.393       .  A
C2765      C2766   1.396       .  A
C2765      H2770   1.085       .  S
C2766      C2767   1.409       .  A
C2767      N2771   1.428       .  S
C2767      C2768   1.410       .  A
C2768      H2772   1.082       .  S
N2769      O2779   1.262       .  A
N2769      O2780   1.262       .  A
N2771      O2777   1.262       .  A
N2771      O2778   1.262       .  A
C2781      C2782   1.383       .  A
C2781      C2786   1.395       .  A
C2781      H2791   1.084       .  S
C2782      C2787   1.489       .  S
C2782      C2783   1.413       .  A
C2783      N2788   1.433       .  S
C2783      C2784   1.417       .  A
C2784      C2785   1.403       .  A
C2784      H2789   1.065       .  S
C2785      C2786   1.426       .  A
C2786      N2790   1.415       .  S
C2787      C2792   1.417       .  A
C2787      C2796   1.401       .  A
N2788      O2803   1.259       .  A
N2788      O2804   1.262       .  A
N2790      O2801   1.259       .  A
C2792      N2797   1.431       .  S
C2792      C2793   1.402       .  A
C2793      C2794   1.400       .  A
C2793      H2798   1.084       .  S
C2794      C2795   1.414       .  A
C2795      N2799   1.429       .  S
C2795      C2796   1.402       .  A
C2796      H2800   1.084       .  S
N2797      O2807   1.262       .  A
N2797      O2808   1.261       .  A
N2799      O2805   1.262       .  A
N2799      O2806   1.262       .  A
C2809      C2810   1.385       .  A
C2809      C2814   1.393       .  A
C2809      H2819   1.085       .  S
C2810      C2815   1.493       .  S
C2810      C2811   1.414       .  A
C2811      N2816   1.432       .  S
C2811      C2812   1.419       .  A
C2812      C2813   1.408       .  A
C2813      C2814   1.426       .  A
C2814      N2818   1.420       .  S
C2815      C2820   1.413       .  A
C2815      C2824   1.404       .  A
N2816      O2832   1.261       .  A
N2818      O2829   1.263       .  A
N2818      O2830   1.259   1_565  A
C2820      N2825   1.429       .  S
C2820      C2821   1.406       .  A
C2821      C2822   1.406       .  A
C2821      H2826   1.083       .  S
C2822      C2823   1.419       .  A
C2823      N2827   1.428       .  S
C2823      C2824   1.404       .  A
C2824      H2828   1.084       .  S
N2825      O2835   1.262       .  A
N2825      O2836   1.262       .  A
N2827      O2833   1.262       .  A
N2827      O2834   1.262       .  A
C2837      C2838   1.394       .  A
C2837      C2842   1.404       .  A
C2837      H2847   1.084       .  S
C2838      C2843   1.508       .  S
C2838      C2839   1.415       .  A
C2839      N2844   1.433   1_655  S
C2839      C2840   1.418       .  A
C2840      C2841   1.409       .  A
C2841      C2842   1.427       .  A
C2842      N2846   1.424       .  S
C2843      C2848   1.413       .  A
C2843      C2852   1.413       .  A
N2844      O2860   1.262       .  A
N2846      O2857   1.258       .  A
N2846      O2858   1.259       .  A
C2848      N2853   1.429       .  S
C2848      C2849   1.402       .  A
C2849      C2850   1.407       .  A
C2849      H2854   1.084       .  S
C2850      C2851   1.413       .  A
C2851      N2855   1.429       .  S
C2851      C2852   1.412       .  A
C2852      H2856   1.083       .  S
N2853      O2863   1.262       .  A
N2853      O2864   1.261       .  A
N2855      O2861   1.262       .  A
N2855      O2862   1.262       .  A
C2865      C2866   1.405       .  A
C2865      C2870   1.402       .  A
C2865      H2875   1.084       .  S
C2866      C2871   1.506       .  S
C2866      C2867   1.417       .  A
C2867      N2872   1.427       .  S
C2867      C2868   1.412       .  A
C2868      C2869   1.406       .  A
C2868      H2873   1.084       .  S
C2869      C2870   1.415       .  A
C2870      N2874   1.431       .  S
C2871      C2876   1.412       .  A
C2871      C2880   1.401       .  A
N2872      O2887   1.261       .  A
N2872      O2888   1.262       .  A
N2874      O2885   1.262       .  A
N2874      O2886   1.262       .  A
C2876      N2881   1.437       .  S
C2876      C2877   1.414       .  A
C2877      C2878   1.419       .  A
C2877      H2882   1.077       .  S
C2878      C2879   1.417       .  A
C2879      C2880   1.410       .  A
C2880      H2884   1.083       .  S
N2881      O2891   1.263       .  A
N2881      O2892   1.262       .  A
N2883      O2889   1.258       .  A
N2883      O2890   1.263       .  A
C2893      C2894   1.401       .  A
C2893      C2898   1.398       .  A
C2893      H2903   1.082       .  S
C2894      C2899   1.490       .  S
C2894      C2895   1.417       .  A
C2895      N2900   1.430       .  S
C2895      C2896   1.402       .  A
C2896      C2897   1.400       .  A
C2896      H2901   1.083       .  S
C2897      C2898   1.412       .  A
C2898      N2902   1.430       .  S
C2899      C2904   1.411       .  A
C2899      C2908   1.396       .  A
N2900      O2915   1.262       .  A
N2900      O2916   1.262       .  A
N2902      O2913   1.262       .  A
N2902      O2914   1.262       .  A
C2904      N2909   1.430       .  S
C2904      C2905   1.404       .  A
C2905      C2906   1.399       .  A
C2905      H2910   1.071       .  S
C2906      C2907   1.427       .  A
C2907      N2911   1.429       .  S
C2907      C2908   1.397       .  A
C2908      H2912   1.083       .  S
N2909      O2919   1.261       .  A
N2909      O2920   1.262       .  A
N2911      O2917   1.262       .  A
N2911      O2918   1.260       .  A
C2921      C2922   1.399       .  A
C2921      C2926   1.401       .  A
C2921      H2931   1.083       .  S
C2922      C2927   1.489       .  S
C2922      C2923   1.425       .  A
C2923      N2928   1.434       .  S
C2923      C2924   1.398       .  A
C2924      C2925   1.401       .  A
C2924      H2929   1.084       .  S
C2925      C2926   1.415       .  A
C2926      N2930   1.426       .  S
C2927      C2932   1.415       .  A
C2927      C2936   1.379       .  A
N2928      O2943   1.262       .  A
N2928      O2944   1.262       .  A
N2930      O2941   1.262       .  A
N2930      O2942   1.260       .  A
C2932      N2937   1.432       .  S
C2932      C2933   1.419       .  A
C2933      C2934   1.401       .  A
C2933      H2938   1.060       .  S
C2934      C2935   1.434       .  A
C2935      N2939   1.419       .  S
C2935      C2936   1.388       .  A
C2936      H2940   1.083       .  S
N2937      O2947   1.261       .  A
N2937      O2948   1.262       .  A
N2939      O2945   1.263       .  A
N2939      O2946   1.263       .  A
C2949      C2950   1.396       .  A
C2949      C2954   1.409       .  A
C2949      H2959   1.084       .  S
C2950      C2955   1.491       .  S
C2950      C2951   1.402       .  A
C2951      N2956   1.428       .  S
C2951      C2952   1.404       .  A
C2952      C2953   1.415       .  A
C2952      H2957   1.072       .  S
C2953      C2954   1.428       .  A
C2954      N2958   1.428       .  S
C2955      C2960   1.408       .  A
C2955      C2964   1.400       .  A
N2956      O2971   1.262       .  A
N2956      O2972   1.262       .  A
N2958      O2969   1.261       .  A
N2958      O2970   1.258       .  A
C2960      N2965   1.428       .  S
C2960      C2961   1.408       .  A
C2961      C2962   1.410       .  A
C2961      H2966   1.084       .  S
C2962      C2963   1.422       .  A
C2963      N2967   1.431       .  S
C2963      C2964   1.405       .  A
C2964      H2968   1.083       .  S
N2965      O2975   1.261       .  A
N2965      O2976   1.262       .  A
N2967      O2973   1.262       .  A
N2967      O2974   1.262       .  A
C2977      C2978   1.395       .  A
C2977      C2982   1.404       .  A
C2977      H2987   1.081       .  S
C2978      C2983   1.491       .  S
C2978      C2979   1.415       .  A
C2979      N2984   1.447       .  S
C2979      C2980   1.416   1_655  A
C2980      C2981   1.409       .  A
C2980      H2985   1.076       .  S
C2981      C2982   1.430   1_455  A
C2982      N2986   1.430   1_655  S
C2983      C2988   1.414       .  A
C2983      C2992   1.406       .  A
N2984      O2999   1.259       .  A
N2984      O3000   1.263       .  A
N2986      O2997   1.263   1_455  A
N2986      O2998   1.261       .  A
C2988      N2993   1.430       .  S
C2988      C2989   1.402       .  A
C2989      C2990   1.405       .  A
C2989      H2994   1.084       .  S
C2990      C2991   1.406       .  A
C2991      N2995   1.425       .  S
C2991      C2992   1.401       .  A
C2992      H2996   1.085       .  S
N2993      O3003   1.262       .  A
N2993      O3004   1.261   1_655  A
N2995      O3001   1.262       .  A
N2995      O3002   1.260       .  A
C3005      C3006   1.392       .  A
C3005      C3010   1.399       .  A
C3005      H3015   1.083       .  S
C3006      C3011   1.492       .  S
C3006      C3007   1.418       .  A
C3007      N3012   1.445       .  S
C3007      C3008   1.419       .  A
C3008      C3009   1.409       .  A
C3008      H3013   1.072       .  S
C3009      C3010   1.437       .  A
C3010      N3014   1.437       .  S
C3011      C3016   1.415       .  A
C3011      C3020   1.404       .  A
N3012      O3027   1.261       .  A
N3012      O3028   1.263       .  A
N3014      O3025   1.261       .  A
N3014      O3026   1.264       .  A
C3016      N3021   1.429       .  S
C3016      C3017   1.401       .  A
C3017      C3018   1.404       .  A
C3017      H3022   1.084       .  S
C3018      C3019   1.413       .  A
C3019      N3023   1.426       .  S
C3019      C3020   1.405       .  A
C3020      H3024   1.084       .  S
N3021      O3031   1.262       .  A
N3021      O3032   1.262       .  A
N3023      O3029   1.262       .  A
N3023      O3030   1.262       .  A
C3033      C3034   1.402       .  A
C3033      C3038   1.407       .  A
C3033      H3043   1.083       .  S
C3034      C3039   1.497       .  S
C3034      C3035   1.408       .  A
C3035      N3040   1.418       .  S
C3035      C3036   1.398       .  A
C3036      C3037   1.399       .  A
C3036      H3041   1.083       .  S
C3037      C3038   1.417       .  A
C3038      N3042   1.425       .  S
C3039      C3044   1.405       .  A
C3039      C3048   1.405       .  A
N3040      O3055   1.260       .  A
N3040      O3056   1.260       .  A
N3042      O3053   1.261       .  A
N3042      O3054   1.261       .  A
C3044      N3049   1.430       .  S
C3044      C3045   1.398       .  A
C3045      C3046   1.417       .  A
C3045      H3050   1.083       .  S
C3046      C3047   1.424       .  A
C3047      C3048   1.414       .  A
C3048      H3052   1.082       .  S
N3049      O3059   1.262       .  A
N3049      O3060   1.262       .  A
N3051      O3057   1.258       .  A
N3051      O3058   1.263       .  A
C3061      C3062   1.399       .  A
C3061      C3066   1.411   1_565  A
C3061      H3071   1.081       .  S
C3062      C3067   1.476       .  S
C3062      C3063   1.401       .  A
C3063      N3068   1.428       .  S
C3063      C3064   1.396       .  A
C3064      C3065   1.417   1_565  A
C3064      H3069   1.084   1_565  S
C3065      C3066   1.411       .  A
C3067      C3072   1.413       .  A
C3067      C3076   1.397       .  A
N3068      O3083   1.262       .  A
N3068      O3084   1.262       .  A
N3070      O3081   1.261       .  A
N3070      O3082   1.262       .  A
C3072      N3077   1.426       .  S
C3072      C3073   1.397       .  A
C3073      C3074   1.399       .  A
C3073      H3078   1.084       .  S
C3074      C3075   1.414       .  A
C3075      N3079   1.426       .  S
C3075      C3076   1.397       .  A
C3076      H3080   1.084       .  S
N3077      O3087   1.261       .  A
N3077      O3088   1.262       .  A
N3079      O3085   1.261       .  A
N3079      O3086   1.259       .  A
C3089      C3090   1.393       .  A
C3089      C3094   1.404       .  A
C3089      H3099   1.084       .  S
C3090      C3095   1.476       .  S
C3090      C3091   1.406       .  A
C3091      N3096   1.435       .  S
C3091      C3092   1.399       .  A
C3092      C3093   1.405       .  A
C3093      C3094   1.432       .  A
C3094      N3098   1.433       .  S
C3095      C3100   1.408       .  A
C3095      C3104   1.397       .  A
N3096      O3112   1.261       .  A
N3098      O3109   1.261       .  A
N3098      O3110   1.261       .  A
C3100      N3105   1.430       .  S
C3100      C3101   1.400       .  A
C3101      C3102   1.406       .  A
C3101      H3106   1.084       .  S
C3102      C3103   1.420       .  A
C3103      N3107   1.430       .  S
C3103      C3104   1.396       .  A
C3104      H3108   1.083       .  S
N3105      O3115   1.262       .  A
N3105      O3116   1.261       .  A
N3107      O3113   1.262       .  A
N3107      O3114   1.262       .  A
C3117      C3118   1.407       .  A
C3117      C3122   1.406       .  A
C3117      H3127   1.084       .  S
C3118      C3123   1.503       .  S
C3118      C3119   1.418       .  A
C3119      N3124   1.429       .  S
C3119      C3120   1.413       .  A
C3120      C3121   1.407       .  A
C3120      H3125   1.084       .  S
C3121      C3122   1.414       .  A
C3122      N3126   1.429       .  S
C3123      C3128   1.414       .  A
C3123      C3132   1.391       .  A
N3124      O3139   1.262       .  A
N3124      O3140   1.262       .  A
N3126      O3137   1.261       .  A
N3126      O3138   1.262       .  A
C3128      N3133   1.429       .  S
C3128      C3129   1.417       .  A
C3129      C3130   1.413       .  A
C3130      C3131   1.442       .  A
C3131      N3135   1.446       .  S
C3131      C3132   1.402       .  A
C3132      H3136   1.084       .  S
N3133      O3144   1.261       .  A
N3135      O3141   1.254       .  A
N3135      O3142   1.264       .  A
C3145      C3146   1.397       .  A
C3145      C3150   1.416       .  A
C3145      H3155   1.082       .  S
C3146      C3151   1.491       .  S
C3146      C3147   1.401       .  A
C3147      N3152   1.429       .  S
C3147      C3148   1.400       .  A
C3148      C3149   1.421       .  A
C3148      H3153   1.080       .  S
C3149      C3150   1.419       .  A
C3150      N3154   1.425       .  S
C3151      C3156   1.410       .  A
C3151      C3160   1.408       .  A
N3152      O3167   1.262       .  A
N3152      O3168   1.261       .  A
N3154      O3165   1.263       .  A
N3154      O3166   1.255       .  A
C3156      N3161   1.429       .  S
C3156      C3157   1.402       .  A
C3157      C3158   1.404       .  A
C3157      H3162   1.084       .  S
C3158      C3159   1.409       .  A
C3159      N3163   1.429       .  S
C3159      C3160   1.407       .  A
C3160      H3164   1.084       .  S
N3161      O3171   1.262       .  A
N3161      O3172   1.262       .  A
N3163      O3169   1.262       .  A
N3163      O3170   1.262       .  A
C3173      C3174   1.405       .  A
C3173      C3178   1.411       .  A
C3173      H3183   1.084       .  S
C3174      C3179   1.498       .  S
C3174      C3175   1.413       .  A
C3175      N3180   1.430       .  S
C3175      C3176   1.403       .  A
C3176      C3177   1.406       .  A
C3176      H3181   1.084       .  S
C3177      C3178   1.421       .  A
C3178      N3182   1.430       .  S
C3179      C3184   1.412       .  A
C3179      C3188   1.385       .  A
N3180      O3195   1.262       .  A
N3180      O3196   1.262       .  A
N3182      O3193   1.262       .  A
N3182      O3194   1.262       .  A
C3184      N3189   1.432       .  S
C3184      C3185   1.423       .  A
C3185      C3186   1.411       .  A
C3185      H3190   1.070   1_655  S
C3186      C3187   1.431       .  A
C3187      N3191   1.416       .  S
C3187      C3188   1.397       .  A
C3188      H3192   1.085       .  S
N3189      O3199   1.262   1_655  A
N3189      O3200   1.262       .  A
N3191      O3197   1.262       .  A
N3191      O3198   1.261   1_655  A
C3201      C3202   1.401       .  A
C3201      C3206   1.404       .  A
C3201      H3211   1.083       .  S
C3202      C3207   1.485       .  S
C3202      C3203   1.408       .  A
C3203      N3208   1.431       .  S
C3203      C3204   1.397       .  A
C3204      C3205   1.403       .  A
C3204      H3209   1.065       .  S
C3205      C3206   1.407       .  A
C3206      N3210   1.425       .  S
C3207      C3212   1.412       .  A
C3207      C3216   1.403       .  A
N3208      O3223   1.262       .  A
N3208      O3224   1.262       .  A
N3210      O3221   1.263       .  A
N3210      O3222   1.257       .  A
C3212      N3217   1.429       .  S
C3212      C3213   1.393       .  A
C3213      C3214   1.402       .  A
C3213      H3218   1.084       .  S
C3214      C3215   1.411       .  A
C3215      N3219   1.429       .  S
C3215      C3216   1.399       .  A
C3216      H3220   1.078       .  S
N3217      O3227   1.262       .  A
N3217      O3228   1.261       .  A
N3219      O3225   1.262       .  A
N3219      O3226   1.262       .  A
C3229      C3230   1.382       .  A
C3229      C3234   1.402       .  A
C3229      H3239   1.085       .  S
C3230      C3235   1.494       .  S
C3230      C3231   1.402       .  A
C3231      N3236   1.414       .  S
C3231      C3232   1.405       .  A
C3232      C3233   1.404       .  A
C3232      H3237   1.068       .  S
C3233      C3234   1.437       .  A
C3235      C3240   1.406       .  A
C3235      C3244   1.411       .  A
N3236      O3251   1.261       .  A
N3236      O3252   1.261       .  A
N3238      O3249   1.261       .  A
N3238      O3250   1.260       .  A
C3240      N3245   1.429       .  S
C3240      C3241   1.402       .  A
C3241      C3242   1.408       .  A
C3241      H3246   1.084       .  S
C3242      C3243   1.408       .  A
C3243      N3247   1.430       .  S
C3243      C3244   1.408       .  A
C3244      H3248   1.084       .  S
N3245      O3255   1.262       .  A
N3245      O3256   1.262       .  A
N3247      O3253   1.262       .  A
N3247      O3254   1.262       .  A
C3257      C3258   1.403       .  A
C3257      C3262   1.411       .  A
C3257      H3267   1.083       .  S
C3258      C3263   1.497       .  S
C3258      C3259   1.411       .  A
C3259      N3264   1.428       .  S
C3259      C3260   1.402       .  A
C3260      C3261   1.407       .  A
C3260      H3265   1.084       .  S
C3261      C3262   1.420       .  A
C3262      N3266   1.428       .  S
C3263      C3268   1.405       .  A
C3263      C3272   1.387       .  A
N3264      O3279   1.262       .  A
N3264      O3280   1.262       .  A
N3266      O3277   1.262       .  A
N3266      O3278   1.262       .  A
C3268      N3273   1.428       .  S
C3268      C3269   1.425       .  A
C3269      C3270   1.407       .  A
C3269      H3274   1.071       .  S
C3270      C3271   1.426       .  A
C3271      N3275   1.419       .  S
C3271      C3272   1.401       .  A
C3272      H3276   1.085       .  S
N3273      O3283   1.262       .  A
N3273      O3284   1.261       .  A
N3275      O3281   1.259       .  A
N3275      O3282   1.261       .  A
C3285      C3286   1.406       .  A
C3285      C3290   1.407       .  A
C3285      H3295   1.084       .  S
C3286      C3291   1.490       .  S
C3286      C3287   1.404       .  A
C3287      N3292   1.425       .  S
C3287      C3288   1.399       .  A
C3288      C3289   1.409       .  A
C3288      H3293   1.083       .  S
C3289      C3290   1.417       .  A
C3290      N3294   1.429       .  S
C3291      C3296   1.395       .  A
C3291      C3300   1.409       .  A
N3292      O3307   1.262       .  A
N3292      O3308   1.261       .  A
N3294      O3305   1.262       .  A
N3294      O3306   1.262       .  A
C3296      N3301   1.431       .  S
C3296      C3297   1.386       .  A
C3297      C3298   1.423       .  A
C3297      H3302   1.071       .  S
C3298      C3299   1.423       .  A
C3299      C3300   1.425       .  A
C3300      H3304   1.083       .  S
N3301      O3311   1.262       .  A
N3301      O3312   1.262       .  A
N3303      O3309   1.263       .  A
N3303      O3310   1.257   1_455  A
C3313      C3314   1.400       .  A
C3313      C3318   1.411       .  A
C3313      H3323   1.082       .  S
C3314      C3319   1.474       .  S
C3314      C3315   1.399       .  A
C3315      N3320   1.432       .  S
C3315      C3316   1.385       .  A
C3316      C3317   1.418       .  A
C3316      H3321   1.085       .  S
C3317      C3318   1.417       .  A
C3318      N3322   1.431   1_565  S
C3319      C3324   1.405       .  A
C3319      C3328   1.403       .  A
N3320      O3335   1.262       .  A
N3320      O3336   1.262       .  A
N3322      O3333   1.263       .  A
N3322      O3334   1.256       .  A
C3324      N3329   1.429       .  S
C3324      C3325   1.396       .  A
C3325      C3326   1.407       .  A
C3325      H3330   1.084       .  S
C3326      C3327   1.413       .  A
C3327      N3331   1.429       .  S
C3327      C3328   1.398       .  A
C3328      H3332   1.084       .  S
N3329      O3339   1.262       .  A
N3329      O3340   1.261   1_565  A
N3331      O3337   1.262       .  A
N3331      O3338   1.262       .  A
C3341      C3342   1.400       .  A
C3341      C3346   1.408       .  A
C3341      H3351   1.081       .  S
C3342      C3347   1.481       .  S
C3342      C3343   1.403       .  A
C3343      N3348   1.430       .  S
C3343      C3344   1.391       .  A
C3344      C3345   1.406       .  A
C3344      H3349   1.074       .  S
C3345      C3346   1.411       .  A
C3346      N3350   1.429       .  S
C3347      C3352   1.407       .  A
C3347      C3356   1.407       .  A
N3348      O3363   1.262       .  A
N3348      O3364   1.262       .  A
N3350      O3361   1.263       .  A
N3350      O3362   1.257       .  A
C3352      N3357   1.430       .  S
C3352      C3353   1.396       .  A
C3353      C3354   1.408       .  A
C3353      H3358   1.084       .  S
C3354      C3355   1.409       .  A
C3355      N3359   1.428       .  S
C3355      C3356   1.402       .  A
C3356      H3360   1.084       .  S
N3357      O3367   1.262       .  A
N3357      O3368   1.262       .  A
N3359      O3365   1.262       .  A
N3359      O3366   1.262       .  A
C3369      C3370   1.404       .  A
C3369      C3374   1.411       .  A
C3369      H3379   1.081       .  S
C3370      C3375   1.505       .  S
C3370      C3371   1.417       .  A
C3371      N3376   1.437       .  S
C3371      C3372   1.407       .  A
C3372      C3373   1.412       .  A
C3372      H3377   1.083   1_565  S
C3373      C3374   1.421       .  A
C3374      N3378   1.442       .  S
C3375      C3380   1.415       .  A
C3375      C3384   1.407       .  A
N3376      O3391   1.263   1_565  A
N3376      O3392   1.263       .  A
N3378      O3389   1.263       .  A
N3378      O3390   1.260       .  A
C3380      N3385   1.424       .  S
C3380      C3381   1.397       .  A
C3381      C3382   1.399       .  A
C3381      H3386   1.084       .  S
C3382      C3383   1.418       .  A
C3383      N3387   1.432       .  S
C3383      C3384   1.410       .  A
C3384      H3388   1.081       .  S
N3385      O3395   1.262       .  A
N3385      O3396   1.261       .  A
N3387      O3393   1.262       .  A
N3387      O3394   1.262       .  A
C3397      C3398   1.411       .  A
C3397      C3402   1.410       .  A
C3397      H3407   1.082       .  S
C3398      C3403   1.510       .  S
C3398      C3399   1.427       .  A
C3399      N3404   1.427       .  S
C3399      C3400   1.391       .  A
C3400      C3401   1.393       .  A
C3400      H3405   1.085       .  S
C3401      C3402   1.416       .  A
C3402      N3406   1.430       .  S
C3403      C3408   1.425       .  A
C3403      C3412   1.395       .  A
N3404      O3419   1.263       .  A
N3404      O3420   1.263       .  A
N3406      O3417   1.262       .  A
N3406      O3418   1.262       .  A
C3408      N3413   1.430       .  S
C3408      C3409   1.421       .  A
C3409      C3410   1.407       .  A
C3409      H3414   1.083       .  S
C3410      C3411   1.422       .  A
C3411      N3415   1.429       .  S
C3411      C3412   1.390       .  A
C3412      H3416   1.077       .  S
N3413      O3423   1.261   1_565  A
N3413      O3424   1.261       .  A
N3415      O3421   1.262       .  A
N3415      O3422   1.262       .  A
