geometry optimzed in LAMMPS
_audit_creation_date              2020-11-30 
_audit_creation_method            'lammps2cif' 
_symmetry_space_group_name_H-M    'P1' 
_symmetry_Int_Tables_number       1 
_symmetry_cell_setting            triclinic 
loop_ 
_symmetry_equiv_pos_as_xyz 
  x,y,z 
_cell_length_a                    29.71846933095112 
_cell_length_b                    29.67977300267928 
_cell_length_c                    30.9509440623362 
_cell_angle_alpha                 89.93763402073613 
_cell_angle_beta                  90.29308140569147 
_cell_angle_gamma                 119.54644106836194 
loop_ 
_atom_site_label 
_atom_site_type_symbol 
_atom_site_fract_x 
_atom_site_fract_y 
_atom_site_fract_z 
_atom_site_charge 
Zn1        Zn  0.16835714  0.33771269  0.06273284     1.49720
Zn2        Zn  0.10324775  0.27311785  0.14458946     1.49360
Zn3        Zn  0.22681735  0.32767122  0.14615093     1.49110
Zn4        Zn  0.17118789  0.39752457  0.14905655     1.49480
O5          O  0.16743370  0.33419814  0.12568011    -1.83420
O6          O  0.11030996  0.27102167  0.03737886    -0.74050
O7          O  0.11960980  0.22688736  0.18117392    -0.73870
O8          O  0.27579861  0.33720298  0.09801122    -0.73380
O9          O  0.06556244  0.22643752  0.09467977    -0.74060
O10         O  0.23562641  0.34566119  0.04028708    -0.73660
O11         O  0.20446843  0.25843337  0.17552584    -0.74240
O12         O  0.23352942  0.43492916  0.18980663    -0.73630
O13         O  0.05498500  0.29365660  0.17572475    -0.74390
O14         O  0.26969691  0.38471345  0.18752630    -0.73780
O15         O  0.10564345  0.37887950  0.18114184    -0.74250
O16         O  0.17239292  0.44592781  0.10154155    -0.74160
O17         O  0.16147161  0.39930954  0.04211790    -0.73950
C18         C  0.07337277  0.23043105  0.05421463     0.77840
C19         C  0.16012532  0.22344222  0.18825954     0.78330
C20         C  0.27396088  0.34447826  0.05774098     0.77290
C21         C  0.26893696  0.42470893  0.20122322     0.77670
C22         C  0.06274709  0.33791911  0.18827009     0.78810
C23         C  0.16516008  0.43929140  0.06088782     0.77860
C24         C  0.99942678  0.04794632  0.25095253     0.03000
C25         C  0.04712568  0.04766260  0.25066493     0.03000
C26         C  0.04772190  0.99997167  0.25022568     0.03000
C27         C  0.50039318  0.45245844  0.00072220     0.03000
C28         C  0.45264623  0.45259249  0.00075840     0.03000
C29         C  0.45217312  0.50033762  0.00059709     0.03000
C30         C  0.34351461  0.02252813  0.03912864     0.03840
C31         C  0.30215138  0.98416223  0.26514845    -0.12310
C32         C  0.31145559  0.46053756  0.22986150     0.01340
C33         C  0.36203140  0.47050482  0.22236328    -0.10840
C34         C  0.40177899  0.99997762  0.00209752     0.03830
C35         C  0.39233879  0.02687048  0.03481944    -0.10260
H36         H  0.26298251  0.47156923  0.27404731     0.09430
H37         H  0.36976881  0.45228856  0.19525595     0.06960
H38         H  0.42306761  0.05147085  0.05693925     0.06800
C39         C  0.34413099  0.31812261  0.21924396     0.03840
C40         C  0.30585016  0.31324090  0.99806251    -0.12310
C41         C  0.31629765  0.35003891  0.03005809     0.01340
C42         C  0.36589553  0.39273957  0.03361232    -0.10840
C43         C  0.40261857  0.40245678  0.00111245     0.03830
C44         C  0.39112025  0.36478254  0.21868833    -0.10260
H45         H  0.26735747  0.28180267  0.99611435     0.09430
H46         H  0.37443982  0.42058763  0.05934191     0.06960
H47         H  0.41945349  0.37085372  0.19418357     0.06800
C48         C  0.02321280  0.34326170  0.21361836     0.03840
C49         C  0.02714029  0.39210745  0.21730079    -0.12310
C50         C  0.00030547  0.40208101  0.24969288     0.01340
C51         C  0.47134105  0.36298982  0.02978959    -0.10840
C52         C  0.46150650  0.31229108  0.02287750     0.03830
C53         C  0.48485899  0.30234116  0.23775311    -0.10260
H54         H  0.05132445  0.42244885  0.19492569     0.09430
H55         H  0.45335375  0.37124844  0.05671594     0.06960
H56         H  0.47139285  0.26299447  0.97871608     0.06800
C57         C  0.47543524  0.15803019  0.21700043     0.03840
C58         C  0.51209493  0.19774502  0.99312353    -0.12310
C59         C  0.03779576  0.18761763  0.02601736     0.01340
C60         C  0.02913051  0.13716829  0.03154230    -0.10840
C61         C  0.49945897  0.09851657  0.25084780     0.03830
C62         C  0.47185292  0.10920138  0.21897049    -0.10260
H63         H  0.02145154  0.23691729  0.98899574     0.09430
H64         H  0.04867582  0.12904130  0.05750215     0.06960
H65         H  0.44713430  0.07950792  0.19614393     0.06800
C66         C  0.15805962  0.47698136  0.03468362     0.03840
C67         C  0.10946778  0.47368848  0.03272993    -0.12310
C68         C  0.09828881  0.50014031  0.00026370     0.01340
C69         C  0.13631442  0.02851625  0.21895051    -0.10840
C70         C  0.18691488  0.03760611  0.22459216     0.03830
C71         C  0.19747719  0.01258517  0.00790550    -0.10260
H72         H  0.08013698  0.44973218  0.05589429     0.09430
H73         H  0.12774632  0.04724037  0.19262658     0.06960
H74         H  0.23661954  0.02161298  0.26203265     0.06800
C75         C  0.18642666  0.14846603  0.02319180     0.03840
C76         C  0.19594313  0.18129027  0.23782101    -0.12310
C77         C  0.15477656  0.17869779  0.21359199     0.01340
C78         C  0.10640909  0.13401733  0.21688311    -0.10840
C79         C  0.09704918  0.09749392  0.24946516     0.03830
C80         C  0.13615118  0.10776296  0.02996380    -0.10260
H81         H  0.23504318  0.20702105  0.22852919     0.09430
H82         H  0.07596343  0.12799070  0.19431635     0.06960
H83         H  0.12832888  0.08174236  0.05701369     0.06800
Zn84       Zn  0.32611932  0.22608614  0.10341627     1.49720
Zn85       Zn  0.27332996  0.10186439  0.10666973     1.49360
Zn86       Zn  0.39672610  0.17138439  0.10228763     1.49110
Zn87       Zn  0.33651367  0.16995316  0.18845085     1.49480
O88         O  0.33340225  0.16763463  0.12534195    -1.83420
O89         O  0.26180583  0.20043758  0.06544531    -0.74050
O90         O  0.29449081  0.05314549  0.07843909    -0.73870
O91         O  0.43456921  0.23354804  0.06185811    -0.73380
O92         O  0.23001297  0.11503777  0.06457306    -0.74060
O93         O  0.38626750  0.27162141  0.06572455    -0.73660
O94         O  0.37873680  0.10601464  0.06994072    -0.74240
O95         O  0.39865576  0.16341509  0.20943180    -0.73630
O96         O  0.22507953  0.06549659  0.15585524    -0.74390
O97         O  0.44437288  0.17203810  0.15008985    -0.73780
O98         O  0.27011142  0.11052793  0.21326888    -0.74250
O99         O  0.34257024  0.23793943  0.21014110    -0.74160
O100        O  0.32787098  0.27336618  0.15206660    -0.73950
C101        C  0.22859661  0.15522138  0.05236136     0.77840
C102        C  0.33838427  0.06206768  0.06446199     0.78330
C103        C  0.42554782  0.27004753  0.05149839     0.77290
C104        C  0.43798804  0.16563631  0.19075839     0.77670
C105        C  0.22943041  0.07334074  0.19638098     0.78810
C106        C  0.33716702  0.27390557  0.19238428     0.77860
Zn107      Zn  0.16835777  0.33771307  0.31273923     1.49720
Zn108      Zn  0.10324165  0.27311733  0.39459521     1.49360
Zn109      Zn  0.22681113  0.32766820  0.39616020     1.49110
Zn110      Zn  0.17118260  0.39752379  0.39906195     1.49480
O111        O  0.16742940  0.33419714  0.37568659    -1.83420
O112        O  0.11031021  0.27102188  0.28738382    -0.74050
O113        O  0.11960079  0.22689047  0.43118748    -0.73870
O114        O  0.27579397  0.33719341  0.34802307    -0.73380
O115        O  0.06556073  0.22643681  0.34468394    -0.74060
O116        O  0.23563017  0.34566186  0.29029759    -0.73660
O117        O  0.20445881  0.25843309  0.42554138    -0.74240
O118        O  0.23352231  0.43492840  0.43981451    -0.73630
O119        O  0.05497570  0.29365524  0.42572637    -0.74390
O120        O  0.26969117  0.38471406  0.43753238    -0.73780
O121        O  0.10563557  0.37887810  0.43114285    -0.74250
O122        O  0.17238890  0.44592755  0.35154656    -0.74160
O123        O  0.16147181  0.39931008  0.29212329    -0.73950
C124        C  0.07337209  0.23043105  0.30421882     0.77840
C125        C  0.16011561  0.22344560  0.43827782     0.78330
C126        C  0.27396102  0.34447312  0.30775302     0.77290
C127        C  0.26893071  0.42470896  0.45123012     0.77670
C128        C  0.06273795  0.33791857  0.43826959     0.78810
C129        C  0.16515758  0.43929115  0.31089270     0.77860
C130        C  0.99940923  0.04794861  0.50095176     0.03000
C131        C  0.04710795  0.04766369  0.50067064     0.03000
C132        C  0.04770295  0.99997209  0.50022635     0.03000
C133        C  0.50038799  0.45245515  0.25072066     0.03000
C134        C  0.45264136  0.45259040  0.25075614     0.03000
C135        C  0.45216969  0.50033609  0.25059352     0.03000
C136        C  0.34349945  0.02252361  0.28913616     0.03840
C137        C  0.30213453  0.98417060  0.51513448    -0.12310
C138        C  0.31145001  0.46053768  0.47986800     0.01340
C139        C  0.36202597  0.47050579  0.47236829    -0.10840
C140        C  0.40176586  0.99997532  0.25210503     0.03830
C141        C  0.39232453  0.02686727  0.28482726    -0.10260
H142        H  0.26297829  0.47156763  0.52405750     0.09430
H143        H  0.36976298  0.45229078  0.44525982     0.06960
H144        H  0.42305302  0.05146800  0.30694718     0.06800
C145        C  0.34411815  0.31814284  0.46921583     0.03840
C146        C  0.30585340  0.31322305  0.24808608    -0.12310
C147        C  0.31629901  0.35003222  0.28007181     0.01340
C148        C  0.36589243  0.39274090  0.28361539    -0.10840
C149        C  0.40261287  0.40245544  0.25111343     0.03830
C150        C  0.39111977  0.36479031  0.46867940    -0.10260
H151        H  0.26737036  0.28177396  0.24615532     0.09430
H152        H  0.37443629  0.42059421  0.30934053     0.06960
H153        H  0.41945958  0.37085865  0.44418184     0.06800
C154        C  0.02320296  0.34326311  0.46361488     0.03840
C155        C  0.02713709  0.39211117  0.46730240    -0.12310
C156        C  0.00030326  0.40208411  0.49969569     0.01340
C157        C  0.47133467  0.36298605  0.27978857    -0.10840
C158        C  0.46150153  0.31228745  0.27287772     0.03830
C159        C  0.48484271  0.30234134  0.48774372    -0.10260
H160        H  0.05132462  0.42245412  0.44492982     0.09430
H161        H  0.45334604  0.37124444  0.30671405     0.06960
H162        H  0.47139278  0.26299103  0.22871998     0.06800
C163        C  0.47541110  0.15803267  0.46701264     0.03840
C164        C  0.51209691  0.19774754  0.24312530    -0.12310
C165        C  0.03779426  0.18761833  0.27602096     0.01340
C166        C  0.02912242  0.13716689  0.28154894    -0.10840
C167        C  0.49944127  0.09851874  0.50085140     0.03830
C168        C  0.47183532  0.10920625  0.46897553    -0.10260
H169        H  0.02145917  0.23692123  0.23899374     0.09430
H170        H  0.04866646  0.12903859  0.30750902     0.06960
H171        H  0.44712072  0.07951610  0.44614503     0.06800
C172        C  0.15805599  0.47698011  0.28468756     0.03840
C173        C  0.10946274  0.47368419  0.28273043    -0.12310
C174        C  0.09828457  0.50013552  0.25026292     0.01340
C175        C  0.13629693  0.02852041  0.46895622    -0.10840
C176        C  0.18689886  0.03761657  0.47460194     0.03830
C177        C  0.19746256  0.01257692  0.25789371    -0.10260
H178        H  0.08013080  0.44972687  0.30589359     0.09430
H179        H  0.12772858  0.04724354  0.44263160     0.06960
H180        H  0.23660607  0.02163577  0.51205196     0.06800
C181        C  0.18641377  0.14845886  0.27318410     0.03840
C182        C  0.19592688  0.18129952  0.48785532    -0.12310
C183        C  0.15476488  0.17870454  0.46361676     0.01340
C184        C  0.10639822  0.13402198  0.46690047    -0.10840
C185        C  0.09703267  0.09749453  0.49947998     0.03830
C186        C  0.13613807  0.10775945  0.27995978    -0.10260
H187        H  0.23503019  0.20703870  0.47857875     0.09430
H188        H  0.07595684  0.12799607  0.44432906     0.06960
H189        H  0.12831592  0.08174006  0.30701066     0.06800
Zn190      Zn  0.32610491  0.22608465  0.35340543     1.49720
Zn191      Zn  0.27331198  0.10186152  0.35667386     1.49360
Zn192      Zn  0.39670948  0.17138168  0.35229212     1.49110
Zn193      Zn  0.33649553  0.16996456  0.43845042     1.49480
O194        O  0.33338478  0.16763468  0.37534146    -1.83420
O195        O  0.26179627  0.20043353  0.31543114    -0.74050
O196        O  0.29447305  0.05314135  0.32844349    -0.73870
O197        O  0.43456003  0.23354503  0.31186194    -0.73380
O198        O  0.22999446  0.11503217  0.31457495    -0.74060
O199        O  0.38625630  0.27161675  0.31571673    -0.73660
O200        O  0.37871982  0.10601002  0.31994811    -0.74240
O201        O  0.39863604  0.16342665  0.45943897    -0.73630
O202        O  0.22506440  0.06549793  0.40586380    -0.74390
O203        O  0.44435030  0.17203373  0.40009872    -0.73780
O204        O  0.27009202  0.11054362  0.46327393    -0.74250
O205        O  0.34255644  0.23795849  0.46012553    -0.74160
O206        O  0.32785186  0.27337263  0.40204514    -0.73950
C207        C  0.22858341  0.15521578  0.30235420     0.77840
C208        C  0.33836744  0.06206312  0.31446855     0.78330
C209        C  0.42553939  0.27004365  0.30149703     0.77290
C210        C  0.43796607  0.16563987  0.44076785     0.77670
C211        C  0.22941350  0.07335004  0.44638877     0.78810
C212        C  0.33715185  0.27392091  0.44236252     0.77860
Zn213      Zn  0.16834378  0.33770900  0.56273628     1.49720
Zn214      Zn  0.10325027  0.27312037  0.64460022     1.49360
Zn215      Zn  0.22681911  0.32767592  0.64614994     1.49110
Zn216      Zn  0.17119029  0.39752972  0.64905729     1.49480
O217        O  0.16743213  0.33420004  0.62568367    -1.83420
O218        O  0.11028927  0.27101889  0.53738858    -0.74050
O219        O  0.11961938  0.22689557  0.68118685    -0.73870
O220        O  0.27579532  0.33721146  0.59800477    -0.73380
O221        O  0.06555510  0.22643566  0.59469466    -0.74060
O222        O  0.23560867  0.34565425  0.54028360    -0.73660
O223        O  0.20447623  0.25843825  0.67552653    -0.74240
O224        O  0.23353125  0.43493357  0.68980865    -0.73630
O225        O  0.05499128  0.29366293  0.67573559    -0.74390
O226        O  0.26970062  0.38471985  0.68752422    -0.73780
O227        O  0.10564574  0.37888771  0.68114004    -0.74250
O228        O  0.17239682  0.44593320  0.60154152    -0.74160
O229        O  0.16145795  0.39930541  0.54212084    -0.73950
C230        C  0.07335516  0.23042903  0.55422807     0.77840
C231        C  0.16013566  0.22345035  0.68826845     0.78330
C232        C  0.27394901  0.34447956  0.55773401     0.77290
C233        C  0.26893988  0.42471410  0.70122348     0.77670
C234        C  0.06275120  0.33792732  0.68827313     0.78810
C235        C  0.16515459  0.43929158  0.56088897     0.77860
C236        C  0.99943374  0.04795382  0.75093884     0.03000
C237        C  0.04713221  0.04766797  0.75066404     0.03000
C238        C  0.04772543  0.99997510  0.75023094     0.03000
C239        C  0.50038540  0.45245796  0.50072407     0.03000
C240        C  0.45263843  0.45259184  0.50075942     0.03000
C241        C  0.45216525  0.50033692  0.50059746     0.03000
C242        C  0.34348212  0.02252633  0.53912640     0.03840
C243        C  0.30215956  0.98417923  0.76511951    -0.12310
C244        C  0.31145826  0.46054183  0.72986292     0.01340
C245        C  0.36203443  0.47050921  0.72236562    -0.10840
C246        C  0.40174803  0.99997733  0.50209573     0.03830
C247        C  0.39230534  0.02686560  0.53482003    -0.10260
H248        H  0.26298440  0.47157140  0.77404975     0.09430
H249        H  0.36977265  0.45229376  0.69525818     0.06960
H250        H  0.42303201  0.05146129  0.55694334     0.06800
C251        C  0.34412765  0.31814468  0.71922263     0.03840
C252        C  0.30583099  0.31325471  0.49804084    -0.12310
C253        C  0.31628422  0.35004342  0.53004724     0.01340
C254        C  0.36588579  0.39273640  0.53360961    -0.10840
C255        C  0.40261048  0.40245634  0.50111041     0.03830
C256        C  0.39112879  0.36479301  0.71868474    -0.10260
H257        H  0.26733637  0.28183101  0.49607840     0.09430
H258        H  0.37443212  0.42057968  0.55934380     0.06960
H259        H  0.41946841  0.37086062  0.69418728     0.06800
C260        C  0.02321689  0.34327172  0.71361929     0.03840
C261        C  0.02714793  0.39211854  0.71730526    -0.12310
C262        C  0.00031295  0.40209060  0.74969826     0.01340
C263        C  0.47132840  0.36298659  0.52978784    -0.10840
C264        C  0.46148905  0.31228684  0.52287170     0.03830
C265        C  0.48485863  0.30234989  0.73774904    -0.10260
H266        H  0.05133377  0.42246117  0.69493178     0.09430
H267        H  0.45334150  0.37124454  0.55671490     0.06960
H268        H  0.47137033  0.26299217  0.47870329     0.06800
C269        C  0.47543127  0.15803607  0.71699709     0.03840
C270        C  0.51206917  0.19774746  0.49314179    -0.12310
C271        C  0.03777009  0.18761685  0.52603334     0.01340
C272        C  0.02910150  0.13716590  0.53155569    -0.10840
C273        C  0.49946687  0.09852472  0.75083394     0.03830
C274        C  0.47186050  0.10921140  0.71895743    -0.10260
H275        H  0.02142919  0.23692200  0.48901549     0.09430
H276        H  0.04864644  0.12903596  0.55751396     0.06960
H277        H  0.44714716  0.07952103  0.69612657     0.06800
C278        C  0.15805345  0.47698095  0.53468433     0.03840
C279        C  0.10946131  0.47368767  0.53273060    -0.12310
C280        C  0.09828234  0.50014037  0.50026506     0.01340
C281        C  0.13631877  0.02851731  0.71896543    -0.10840
C282        C  0.18692187  0.03762021  0.72461694     0.03830
C283        C  0.19744745  0.01259168  0.50790694    -0.10260
H284        H  0.08013049  0.44973089  0.55589475     0.09430
H285        H  0.12775011  0.04723538  0.69263692     0.06960
H286        H  0.23663057  0.02165140  0.76207607     0.06800
C287        C  0.18639298  0.14845891  0.52321171     0.03840
C288        C  0.19595203  0.18130472  0.73784242    -0.12310
C289        C  0.15478947  0.17870838  0.71360398     0.01340
C290        C  0.10642342  0.13402417  0.71688808    -0.10840
C291        C  0.09705811  0.09749893  0.74946972     0.03830
C292        C  0.13611723  0.10775457  0.52997827    -0.10260
H293        H  0.23505639  0.20704654  0.72856516     0.09430
H294        H  0.07598199  0.12799684  0.69431632     0.06960
H295        H  0.12829209  0.08172897  0.55702492     0.06800
Zn296      Zn  0.32610197  0.22608459  0.60341191     1.49720
Zn297      Zn  0.27330967  0.10186403  0.60668291     1.49360
Zn298      Zn  0.39670719  0.17138196  0.60228682     1.49110
Zn299      Zn  0.33651185  0.16996991  0.68845403     1.49480
O300        O  0.33338727  0.16763693  0.62534510    -1.83420
O301        O  0.26178334  0.20043090  0.56545047    -0.74050
O302        O  0.29446263  0.05314333  0.57844426    -0.73870
O303        O  0.43455189  0.23354548  0.56185578    -0.73380
O304        O  0.22997555  0.11502896  0.56459758    -0.74060
O305        O  0.38624641  0.27161524  0.56571458    -0.73660
O306        O  0.37870768  0.10601180  0.56993863    -0.74240
O307        O  0.39865808  0.16343587  0.70943354    -0.73630
O308        O  0.22507822  0.06550170  0.65587805    -0.74390
O309        O  0.44435556  0.17202821  0.65008592    -0.73780
O310        O  0.27011499  0.11054689  0.71328505    -0.74250
O311        O  0.34257206  0.23796340  0.71013063    -0.74160
O312        O  0.32785592  0.27337311  0.65205296    -0.73950
C313        C  0.22856368  0.15521283  0.55237946     0.77840
C314        C  0.33835399  0.06206537  0.56446196     0.78330
C315        C  0.42552863  0.27004261  0.55149161     0.77290
C316        C  0.43798156  0.16564158  0.69075649     0.77670
C317        C  0.22943440  0.07335292  0.69640272     0.78810
C318        C  0.33716203  0.27392347  0.69236919     0.77860
Zn319      Zn  0.16835142  0.33771442  0.81273518     1.49720
Zn320      Zn  0.10325182  0.27311772  0.89459404     1.49360
Zn321      Zn  0.22682103  0.32767506  0.89614984     1.49110
Zn322      Zn  0.17119161  0.39752755  0.89905903     1.49480
O323        O  0.16743496  0.33419978  0.87568237    -1.83420
O324        O  0.11030156  0.27102448  0.78738236    -0.74050
O325        O  0.11961951  0.22689047  0.93117972    -0.73870
O326        O  0.27579915  0.33721204  0.84800625    -0.73380
O327        O  0.06556268  0.22643564  0.84468470    -0.74060
O328        O  0.23561859  0.34566373  0.79028483    -0.73660
O329        O  0.20447742  0.25843678  0.92552431    -0.74240
O330        O  0.23353121  0.43493002  0.93981165    -0.73630
O331        O  0.05499022  0.29365835  0.92572928    -0.74390
O332        O  0.26970107  0.38471684  0.93752596    -0.73780
O333        O  0.10564639  0.37888227  0.93114141    -0.74250
O334        O  0.17239916  0.44593415  0.85154571    -0.74160
O335        O  0.16146533  0.39931167  0.79212258    -0.73950
C336        C  0.07336735  0.23043204  0.80421868     0.77840
C337        C  0.16013622  0.22344646  0.93826282     0.78330
C338        C  0.27395657  0.34448522  0.80773610     0.77290
C339        C  0.26893979  0.42471043  0.95122618     0.77670
C340        C  0.06275090  0.33792166  0.93827117     0.78810
C341        C  0.16515997  0.43929597  0.81089267     0.77860
C342        C  0.99943979  0.04794871  0.00094646     0.03000
C343        C  0.04713910  0.04766499  0.00066535     0.03000
C344        C  0.04773457  0.99997335  0.00023079     0.03000
C345        C  0.50039359  0.45246327  0.75072657     0.03000
C346        C  0.45264632  0.45259647  0.75076157     0.03000
C347        C  0.45217261  0.50034126  0.75059802     0.03000
C348        C  0.34350746  0.02253530  0.78911140     0.03840
C349        C  0.30216561  0.98416715  0.01514152    -0.12310
C350        C  0.31145812  0.46053776  0.97986564     0.01340
C351        C  0.36203427  0.47050590  0.97236708    -0.10840
C352        C  0.40177230  0.99998405  0.75208184     0.03830
C353        C  0.39233059  0.02687511  0.78480417    -0.10260
H354        H  0.26298493  0.47156769  0.02405337     0.09430
H355        H  0.36977205  0.45229089  0.94525905     0.06960
H356        H  0.42305770  0.05147177  0.80692679     0.06800
C357        C  0.34413300  0.31813260  0.96923116     0.03840
C358        C  0.30584074  0.31325775  0.74804696    -0.12310
C359        C  0.31629211  0.35004834  0.78005055     0.01340
C360        C  0.36589341  0.39274254  0.78361202    -0.10840
C361        C  0.40261868  0.40246065  0.75111387     0.03830
C362        C  0.39112840  0.36478698  0.96868520    -0.10260
H363        H  0.26734434  0.28182996  0.74608668     0.09430
H364        H  0.37443884  0.42058724  0.80934474     0.06960
H365        H  0.41946527  0.37085662  0.94418450     0.06800
C366        C  0.02321636  0.34326515  0.96361798     0.03840
C367        C  0.02714538  0.39211151  0.96730150    -0.12310
C368        C  0.00031137  0.40208502  0.99969440     0.01340
C369        C  0.47134076  0.36299360  0.77979177    -0.10840
C370        C  0.46150519  0.31229494  0.77287708     0.03830
C371        C  0.48486138  0.30234445  0.98775124    -0.10260
H372        H  0.05132993  0.42245318  0.94492677     0.09430
H373        H  0.45335299  0.37125093  0.80671852     0.06960
H374        H  0.47138596  0.26300069  0.72870868     0.06800
C375        C  0.47543856  0.15802844  0.96699522     0.03840
C376        C  0.51208478  0.19774977  0.74312978    -0.12310
C377        C  0.03778767  0.18762033  0.77602069     0.01340
C378        C  0.02912424  0.13717103  0.78154024    -0.10840
C379        C  0.49947114  0.09851884  0.00083913     0.03830
C380        C  0.47186350  0.10920226  0.96896170    -0.10260
H381        H  0.02143908  0.23692235  0.73900785     0.09430
H382        H  0.04866909  0.12904162  0.80749891     0.06960
H383        H  0.44714771  0.07950911  0.94613380     0.06800
C384        C  0.15806002  0.47698703  0.78468944     0.03840
C385        C  0.10946833  0.47369452  0.78273537    -0.12310
C386        C  0.09828972  0.50014612  0.75026856     0.01340
C387        C  0.13632672  0.02851681  0.96895806    -0.10840
C388        C  0.18692808  0.03761079  0.97460182     0.03830
C389        C  0.19747118  0.01260130  0.75792608    -0.10260
H390        H  0.08013730  0.44973851  0.80589967     0.09430
H391        H  0.12775774  0.04723834  0.94263257     0.06960
H392        H  0.23663485  0.02162471  0.01204627     0.06800
C393        C  0.18641921  0.14846585  0.77320000     0.03840
C394        C  0.19595604  0.18129965  0.98783095    -0.12310
C395        C  0.15479101  0.17870411  0.96359718     0.01340
C396        C  0.10642481  0.13402066  0.96688529    -0.10840
C397        C  0.09706355  0.09749691  0.99946736     0.03830
C398        C  0.13614313  0.10776237  0.77996839    -0.10260
H399        H  0.23505933  0.20703622  0.97854519     0.09430
H400        H  0.07598087  0.12799257  0.94431614     0.06960
H401        H  0.12831844  0.08173974  0.80701714     0.06800
Zn402      Zn  0.32611784  0.22608560  0.85341300     1.49720
Zn403      Zn  0.27332899  0.10186425  0.85667341     1.49360
Zn404      Zn  0.39672495  0.17138435  0.85228327     1.49110
Zn405      Zn  0.33652070  0.16996170  0.93844970     1.49480
O406        O  0.33340300  0.16763596  0.87534093    -1.83420
O407        O  0.26180363  0.20043610  0.81544631    -0.74050
O408        O  0.29448796  0.05314700  0.82843621    -0.73870
O409        O  0.43457045  0.23355257  0.81185804    -0.73380
O410        O  0.23000233  0.11503517  0.81458406    -0.74060
O411        O  0.38626370  0.27162076  0.81572016    -0.73660
O412        O  0.37873149  0.10601940  0.81992776    -0.74240
O413        O  0.39866420  0.16342416  0.95942914    -0.73630
O414        O  0.22508854  0.06549632  0.90586359    -0.74390
O415        O  0.44436924  0.17202694  0.90008383    -0.73780
O416        O  0.27012129  0.11053687  0.96327365    -0.74250
O417        O  0.34257844  0.23795175  0.96013385    -0.74160
O418        O  0.32786770  0.27336818  0.90205822    -0.73950
C419        C  0.22858872  0.15521921  0.80236910     0.77840
C420        C  0.33837898  0.06207208  0.81445066     0.78330
C421        C  0.42554647  0.27004993  0.80149656     0.77290
C422        C  0.43799026  0.16563398  0.94075354     0.77670
C423        C  0.22944149  0.07334479  0.94638872     0.78810
C424        C  0.33716965  0.27391380  0.94237495     0.77860
Zn425      Zn  0.16836828  0.83770791  0.06273740     1.49720
Zn426      Zn  0.10326166  0.77312019  0.14459331     1.49360
Zn427      Zn  0.22683591  0.82766926  0.14615201     1.49110
Zn428      Zn  0.17121047  0.89752434  0.14906517     1.49480
O429        O  0.16745153  0.83419751  0.12568496    -1.83420
O430        O  0.11031125  0.77102182  0.03738217    -0.74050
O431        O  0.11962097  0.72689402  0.18118112    -0.73870
O432        O  0.27581969  0.83721203  0.09800766    -0.73380
O433        O  0.06556955  0.72643894  0.09468525    -0.74060
O434        O  0.23563265  0.84565334  0.04028643    -0.73660
O435        O  0.20447692  0.75842524  0.17552334    -0.74240
O436        O  0.23354733  0.93492082  0.18982355    -0.73630
O437        O  0.05500017  0.79365789  0.17572961    -0.74390
O438        O  0.26971580  0.88470678  0.18753503    -0.73780
O439        O  0.10566090  0.87888044  0.18114450    -0.74250
O440        O  0.17242767  0.94593314  0.10154945    -0.74160
O441        O  0.16149422  0.89931017  0.04212612    -0.73950
C442        C  0.07337283  0.73043301  0.05421918     0.77840
C443        C  0.16013198  0.72344232  0.18826506     0.78330
C444        C  0.27397523  0.84448217  0.05773758     0.77290
C445        C  0.26895427  0.92469912  0.20123890     0.77670
C446        C  0.06276303  0.83792122  0.18827264     0.78810
C447        C  0.16519195  0.93929580  0.06089584     0.77860
C448        C  0.99941265  0.54795016  0.25093566     0.03000
C449        C  0.04710926  0.54766109  0.25065504     0.03000
C450        C  0.04769984  0.49996711  0.25021356     0.03000
C451        C  0.50042460  0.95245860  0.00074409     0.03000
C452        C  0.45267606  0.95258872  0.00078020     0.03000
C453        C  0.45219948  0.00033173  0.00061107     0.03000
C454        C  0.34348788  0.52253118  0.03912318     0.03840
C455        C  0.30213712  0.48417627  0.26512740    -0.12310
C456        C  0.31147096  0.96052385  0.22988234     0.01340
C457        C  0.36204775  0.97049300  0.22238590    -0.10840
C458        C  0.40175371  0.49998673  0.00208539     0.03830
C459        C  0.39231268  0.52687471  0.03481135    -0.10260
H460        H  0.26299704  0.97155303  0.27407100     0.09430
H461        H  0.36978732  0.95227868  0.19527841     0.06960
H462        H  0.42304108  0.55147148  0.05693285     0.06800
C463        C  0.34412925  0.81815271  0.21920831     0.03840
C464        C  0.30585929  0.81328623  0.99802514    -0.12310
C465        C  0.31630706  0.85004477  0.03004810     0.01340
C466        C  0.36592072  0.89272922  0.03362605    -0.10840
C467        C  0.40264744  0.90245081  0.00112916     0.03830
C468        C  0.39114664  0.86479226  0.21869131    -0.10260
H469        H  0.26731681  0.78184643  0.99603448     0.09430
H470        H  0.37446828  0.92056414  0.05936623     0.06960
H471        H  0.41949073  0.87085878  0.19419917     0.06800
C472        C  0.02322836  0.84326543  0.21361949     0.03840
C473        C  0.02716767  0.89211477  0.21731381    -0.12310
C474        C  0.00033392  0.90208505  0.24970902     0.01340
C475        C  0.47136512  0.86298576  0.02980315    -0.10840
C476        C  0.46151287  0.81228380  0.02287667     0.03830
C477        C  0.48485943  0.80234080  0.23774015    -0.10260
H478        H  0.05135647  0.92245933  0.19494305     0.09430
H479        H  0.45338000  0.87124259  0.05673223     0.06960
H480        H  0.47137900  0.76299156  0.97869415     0.06800
C481        C  0.47541457  0.65803717  0.21700703     0.03840
C482        C  0.51208069  0.69775389  0.99313614    -0.12310
C483        C  0.03778611  0.68762247  0.02602309     0.01340
C484        C  0.02911496  0.63717067  0.03154424    -0.10840
C485        C  0.49944979  0.59852281  0.25083633     0.03830
C486        C  0.47184253  0.60921240  0.21896349    -0.10260
H487        H  0.02144364  0.73692855  0.98901058     0.09430
H488        H  0.04865981  0.62903912  0.05750155     0.06960
H489        H  0.44712775  0.57952409  0.19613170     0.06800
C490        C  0.15809376  0.97698659  0.03469150     0.03840
C491        C  0.10950419  0.97369900  0.03274378    -0.12310
C492        C  0.09832084  0.00014557  0.00027605     0.01340
C493        C  0.13629770  0.52851471  0.21895236    -0.10840
C494        C  0.18690089  0.53761780  0.22460728     0.03830
C495        C  0.19744815  0.51259107  0.00790749    -0.10260
H496        H  0.08017687  0.94974813  0.05591266     0.09430
H497        H  0.12773235  0.54723724  0.19262540     0.06960
H498        H  0.23660450  0.52164036  0.26206523     0.06800
C499        C  0.18639945  0.64846012  0.02320914     0.03840
C500        C  0.19592907  0.68129436  0.23785231    -0.12310
C501        C  0.15477964  0.67870242  0.21360418     0.01340
C502        C  0.10640793  0.63401828  0.21688509    -0.10840
C503        C  0.09703728  0.59749113  0.24946552     0.03830
C504        C  0.13612005  0.60775213  0.02997181    -0.10260
H505        H  0.23505597  0.70705908  0.22858469     0.09430
H506        H  0.07596993  0.62799481  0.19431163     0.06960
H507        H  0.12829234  0.58172631  0.05701784     0.06800
Zn508      Zn  0.32610817  0.72608757  0.10340276     1.49720
Zn509      Zn  0.27330844  0.60186183  0.10668181     1.49360
Zn510      Zn  0.39670530  0.67138019  0.10229078     1.49110
Zn511      Zn  0.33649765  0.66997118  0.18845185     1.49480
O512        O  0.33338376  0.66763710  0.12534311    -1.83420
O513        O  0.26178905  0.70043075  0.06544462    -0.74050
O514        O  0.29446470  0.55314375  0.07844176    -0.73870
O515        O  0.43456137  0.73354033  0.06186019    -0.73380
O516        O  0.22997507  0.61502729  0.06459881    -0.74060
O517        O  0.38625730  0.77161220  0.06570498    -0.73660
O518        O  0.37871085  0.60601179  0.06994390    -0.74240
O519        O  0.39864158  0.66343693  0.20943863    -0.73630
O520        O  0.22507129  0.56549680  0.15587293    -0.74390
O521        O  0.44434541  0.67202908  0.15009478    -0.73780
O522        O  0.27009340  0.61055118  0.21328149    -0.74250
O523        O  0.34256328  0.73796890  0.21011959    -0.74160
O524        O  0.32786402  0.77338458  0.15203751    -0.73950
C525        C  0.22856511  0.65521047  0.05237870     0.77840
C526        C  0.33835763  0.56206655  0.06446254     0.78330
C527        C  0.42554197  0.77003796  0.05149004     0.77290
C528        C  0.43796758  0.66564393  0.19076489     0.77670
C529        C  0.22941766  0.57335278  0.19639688     0.78810
C530        C  0.33716386  0.77393392  0.19235471     0.77860
Zn531      Zn  0.16835474  0.83770404  0.31273421     1.49720
Zn532      Zn  0.10324854  0.77311891  0.39459416     1.49360
Zn533      Zn  0.22682145  0.82766943  0.39614874     1.49110
Zn534      Zn  0.17119234  0.89752311  0.39905733     1.49480
O535        O  0.16743626  0.83419573  0.37568165    -1.83420
O536        O  0.11029970  0.77101646  0.28738357    -0.74050
O537        O  0.11961050  0.72689604  0.43118580    -0.73870
O538        O  0.27580521  0.83720921  0.34800502    -0.73380
O539        O  0.06555819  0.72643442  0.34468742    -0.74060
O540        O  0.23561840  0.84564793  0.29028278    -0.73660
O541        O  0.20446618  0.75842840  0.42552552    -0.74240
O542        O  0.23352937  0.93492396  0.43981301    -0.73630
O543        O  0.05498577  0.79365837  0.42572746    -0.74390
O544        O  0.26970027  0.88471183  0.43752657    -0.73780
O545        O  0.10564318  0.87888199  0.43113588    -0.74250
O546        O  0.17240959  0.94592839  0.35153977    -0.74160
O547        O  0.16147963  0.89930411  0.29211811    -0.73950
C548        C  0.07336254  0.73042760  0.30422145     0.77840
C549        C  0.16012380  0.72344653  0.43826979     0.78330
C550        C  0.27396077  0.84447721  0.30773446     0.77290
C551        C  0.26893796  0.92470461  0.45122797     0.77670
C552        C  0.06274662  0.83792247  0.43826651     0.78810
C553        C  0.16517606  0.93929001  0.31088622     0.77860
C554        C  0.99940783  0.54795197  0.50094019     0.03000
C555        C  0.04710530  0.54766426  0.50065991     0.03000
C556        C  0.04769713  0.49997082  0.50021785     0.03000
C557        C  0.50041255  0.95245676  0.25074005     0.03000
C558        C  0.45266349  0.95258631  0.25078162     0.03000
C559        C  0.45218642  0.00032936  0.25061757     0.03000
C560        C  0.34348566  0.52253212  0.28911826     0.03840
C561        C  0.30213243  0.48417523  0.51513531    -0.12310
C562        C  0.31145472  0.96053129  0.47986964     0.01340
C563        C  0.36203118  0.97049837  0.47237465    -0.10840
C564        C  0.40175094  0.49998638  0.25208115     0.03830
C565        C  0.39231022  0.52687516  0.28480664    -0.10260
H566        H  0.26297973  0.97156494  0.52405268     0.09430
H567        H  0.36977097  0.95228444  0.44526701     0.06960
H568        H  0.42303852  0.55147167  0.30692832     0.06800
C569        C  0.34411986  0.81815726  0.46919461     0.03840
C570        C  0.30584638  0.81328149  0.24802196    -0.12310
C571        C  0.31629412  0.85004057  0.28004599     0.01340
C572        C  0.36590721  0.89272425  0.28362577    -0.10840
C573        C  0.40263534  0.90244808  0.25112939     0.03830
C574        C  0.39113097  0.86479395  0.46867647    -0.10260
H575        H  0.26730928  0.78184586  0.24603064     0.09430
H576        H  0.37445387  0.92055798  0.30936697     0.06960
H577        H  0.41947729  0.87086220  0.44418513     0.06800
C578        C  0.02321145  0.84326705  0.46361234     0.03840
C579        C  0.02714976  0.89211632  0.46730594    -0.12310
C580        C  0.00031402  0.90208581  0.49969993     0.01340
C581        C  0.47135738  0.86298444  0.27979769    -0.10840
C582        C  0.46150813  0.81228346  0.27287180     0.03830
C583        C  0.48484346  0.80234191  0.48773410    -0.10260
H584        H  0.05133996  0.92246181  0.44493639     0.09430
H585        H  0.45337208  0.87124031  0.30672721     0.06960
H586        H  0.47137548  0.76299293  0.22868808     0.06800
C587        C  0.47540603  0.65803706  0.46700838     0.03840
C588        C  0.51207262  0.69774992  0.24313790    -0.12310
C589        C  0.03777764  0.68761730  0.27602531     0.01340
C590        C  0.02911110  0.63716669  0.28154279    -0.10840
C591        C  0.49944289  0.59852424  0.50083922     0.03830
C592        C  0.47183464  0.60921241  0.46896612    -0.10260
H593        H  0.02143080  0.73692350  0.23901753     0.09430
H594        H  0.04865688  0.62903488  0.30749914     0.06960
H595        H  0.44712000  0.57952327  0.44613489     0.06800
C596        C  0.15807916  0.97698031  0.28468055     0.03840
C597        C  0.10949155  0.97369678  0.28273543    -0.12310
C598        C  0.09830852  0.00014451  0.25026872     0.01340
C599        C  0.13629411  0.52851997  0.46895358    -0.10840
C600        C  0.18689650  0.53761923  0.47460451     0.03830
C601        C  0.19744566  0.51259205  0.25791357    -0.10260
H602        H  0.08016492  0.94974744  0.30590537     0.09430
H603        H  0.12772826  0.54724422  0.44262830     0.06960
H604        H  0.23660012  0.52163498  0.51205555     0.06800
C605        C  0.18639600  0.64845587  0.27320441     0.03840
C606        C  0.19592866  0.68130471  0.48785809    -0.12310
C607        C  0.15477016  0.67870571  0.46361085     0.01340
C608        C  0.10640279  0.63402270  0.46689091    -0.10840
C609        C  0.09703198  0.59749422  0.49947109     0.03830
C610        C  0.13611696  0.60774867  0.27996721    -0.10260
H611        H  0.23503249  0.70705069  0.47859500     0.09430
H612        H  0.07596380  0.62799740  0.44431683     0.06960
H613        H  0.12828902  0.58172291  0.30701344     0.06800
Zn614      Zn  0.32610352  0.72608517  0.35339578     1.49720
Zn615      Zn  0.27330495  0.60185997  0.35667876     1.49360
Zn616      Zn  0.39670196  0.67138010  0.35228765     1.49110
Zn617      Zn  0.33649136  0.66997317  0.43844738     1.49480
O618        O  0.33337948  0.66763628  0.37533877    -1.83420
O619        O  0.26178582  0.70042744  0.31543812    -0.74050
O620        O  0.29446304  0.55314305  0.32843956    -0.73870
O621        O  0.43455971  0.73354144  0.31185749    -0.73380
O622        O  0.22997123  0.61502394  0.31459540    -0.74060
O623        O  0.38625195  0.77160949  0.31569843    -0.73660
O624        O  0.37870845  0.60601275  0.31993914    -0.74240
O625        O  0.39863461  0.66343928  0.45943677    -0.73630
O626        O  0.22506704  0.56549485  0.40586964    -0.74390
O627        O  0.44433877  0.67202664  0.40009402    -0.73780
O628        O  0.27008714  0.61055387  0.46327716    -0.74250
O629        O  0.34255412  0.73797122  0.46011195    -0.74160
O630        O  0.32785591  0.77338289  0.40202677    -0.73950
C631        C  0.22856166  0.65520691  0.30237382     0.77840
C632        C  0.33835561  0.56206699  0.31445855     0.78330
C633        C  0.42553827  0.77003724  0.30148535     0.77290
C634        C  0.43796007  0.66564352  0.44076429     0.77670
C635        C  0.22941245  0.57335354  0.44639325     0.78810
C636        C  0.33715334  0.77393367  0.44234451     0.77860
Zn637      Zn  0.16834526  0.83771080  0.56273111     1.49720
Zn638      Zn  0.10325308  0.77312218  0.64459131     1.49360
Zn639      Zn  0.22682390  0.82767063  0.64614075     1.49110
Zn640      Zn  0.17120201  0.89752911  0.64905807     1.49480
O641        O  0.16743855  0.83420023  0.62567843    -1.83420
O642        O  0.11028896  0.77102289  0.53738098    -0.74050
O643        O  0.11961653  0.72689851  0.68118036    -0.73870
O644        O  0.27579316  0.83720241  0.59798984    -0.73380
O645        O  0.06555807  0.72643684  0.59468685    -0.74060
O646        O  0.23560666  0.84565593  0.54027329    -0.73660
O647        O  0.20447218  0.75843156  0.67551943    -0.74240
O648        O  0.23354877  0.93492957  0.68980553    -0.73630
O649        O  0.05499458  0.79366259  0.67572681    -0.74390
O650        O  0.26971664  0.88471502  0.68751417    -0.73780
O651        O  0.10565951  0.87888424  0.68114766    -0.74250
O652        O  0.17240649  0.94593568  0.60154450    -0.74160
O653        O  0.16146317  0.89931002  0.54212142    -0.73950
C654        C  0.07335621  0.73043179  0.55422019     0.77840
C655        C  0.16012848  0.72344825  0.68826347     0.78330
C656        C  0.27394599  0.84447638  0.55771998     0.77290
C657        C  0.26895841  0.92470964  0.70121630     0.77670
C658        C  0.06276098  0.83792535  0.68827477     0.78810
C659        C  0.16516298  0.93929626  0.56089170     0.77860
C660        C  0.99941500  0.54795699  0.75093998     0.03000
C661        C  0.04711251  0.54766961  0.75066019     0.03000
C662        C  0.04770476  0.49997655  0.75021989     0.03000
C663        C  0.50039384  0.95245755  0.50073320     0.03000
C664        C  0.45264538  0.95258801  0.50076996     0.03000
C665        C  0.45216875  0.00033132  0.50060939     0.03000
C666        C  0.34348183  0.52253170  0.53912485     0.03840
C667        C  0.30213913  0.48417948  0.76512940    -0.12310
C668        C  0.31147820  0.96053642  0.72985639     0.01340
C669        C  0.36205409  0.97050042  0.72236273    -0.10840
C670        C  0.40174593  0.49998594  0.50208641     0.03830
C671        C  0.39230596  0.52687415  0.53481270    -0.10260
H672        H  0.26300455  0.97157395  0.77403632     0.09430
H673        H  0.36979267  0.95228215  0.69525765     0.06960
H674        H  0.42303482  0.55147074  0.55693392     0.06800
C675        C  0.34413591  0.81815110  0.71921393     0.03840
C676        C  0.30582216  0.81327376  0.49800582    -0.12310
C677        C  0.31628116  0.85004494  0.53003077     0.01340
C678        C  0.36588865  0.89272502  0.53361032    -0.10840
C679        C  0.40261883  0.90245157  0.50111442     0.03830
C680        C  0.39114984  0.86479553  0.71868745    -0.10260
H681        H  0.26732228  0.78187220  0.49601766     0.09430
H682        H  0.37443557  0.92055903  0.55935265     0.06960
H683        H  0.41949137  0.87086046  0.69419342     0.06800
C684        C  0.02322885  0.84326944  0.71362461     0.03840
C685        C  0.02716800  0.89211854  0.71731762    -0.12310
C686        C  0.00033407  0.90208964  0.74971150     0.01340
C687        C  0.47133659  0.86298431  0.52978897    -0.10840
C688        C  0.46149059  0.81228405  0.52286486     0.03830
C689        C  0.48486267  0.80234520  0.73774876    -0.10260
H690        H  0.05135690  0.92246287  0.69494662     0.09430
H691        H  0.45335009  0.87123988  0.55671775     0.06960
H692        H  0.47136413  0.76299406  0.47868478     0.06800
C693        C  0.47542427  0.65804556  0.71700079     0.03840
C694        C  0.51206351  0.69775095  0.49313880    -0.12310
C695        C  0.03777023  0.68762008  0.52602547     0.01340
C696        C  0.02910438  0.63716979  0.53154464    -0.10840
C697        C  0.49945067  0.59852888  0.75083894     0.03830
C698        C  0.47184501  0.60921783  0.71896413    -0.10260
H699        H  0.02141980  0.73692377  0.48901689     0.09430
H700        H  0.04865094  0.62903960  0.55750135     0.06960
H701        H  0.44712729  0.57952747  0.69613501     0.06800
C702        C  0.15806238  0.97698708  0.53468867     0.03840
C703        C  0.10947080  0.97369469  0.53273764    -0.12310
C704        C  0.09828899  0.00014428  0.50027148     0.01340
C705        C  0.13630101  0.52852335  0.71895625    -0.10840
C706        C  0.18690327  0.53762290  0.72460799     0.03830
C707        C  0.19744181  0.51259064  0.50790807    -0.10260
H708        H  0.08014162  0.94973962  0.55590365     0.09430
H709        H  0.12773504  0.54724610  0.69262985     0.06960
H710        H  0.23660668  0.52164108  0.76206146     0.06800
C711        C  0.18638870  0.64845950  0.52321190     0.03840
C712        C  0.19592996  0.68130040  0.73784848    -0.12310
C713        C  0.15477948  0.67870983  0.71360349     0.01340
C714        C  0.10640797  0.63402542  0.71688710    -0.10840
C715        C  0.09703991  0.59750040  0.74946866     0.03830
C716        C  0.13611304  0.60775298  0.52997282    -0.10260
H717        H  0.23505873  0.70706072  0.72857173     0.09430
H718        H  0.07596888  0.62800041  0.69431448     0.06960
H719        H  0.12828499  0.58172554  0.55701864     0.06800
Zn720      Zn  0.32610078  0.72608737  0.60340515     1.49720
Zn721      Zn  0.27330517  0.60186545  0.60668023     1.49360
Zn722      Zn  0.39670450  0.67138574  0.60228686     1.49110
Zn723      Zn  0.33650100  0.66997061  0.68845019     1.49480
O724        O  0.33338228  0.66763919  0.62534159    -1.83420
O725        O  0.26177777  0.70043130  0.56545073    -0.74050
O726        O  0.29446056  0.55314689  0.57844185    -0.73870
O727        O  0.43455034  0.73354344  0.56185067    -0.73380
O728        O  0.22997103  0.61502928  0.56459631    -0.74060
O729        O  0.38624299  0.77161140  0.56570205    -0.73660
O730        O  0.37870714  0.60601390  0.56994313    -0.74240
O731        O  0.39864622  0.66343640  0.70943351    -0.73630
O732        O  0.22506881  0.56550230  0.65587207    -0.74390
O733        O  0.44435372  0.67204230  0.65008925    -0.73780
O734        O  0.27009778  0.61055123  0.71328023    -0.74250
O735        O  0.34256909  0.73796732  0.71012220    -0.74160
O736        O  0.32786422  0.77338353  0.65204318    -0.73950
C737        C  0.22855783  0.65521308  0.55238047     0.77840
C738        C  0.33835320  0.56206865  0.56446291     0.78330
C739        C  0.42552634  0.77003860  0.55148195     0.77290
C740        C  0.43797545  0.66565142  0.69075918     0.77670
C741        C  0.22941904  0.57335617  0.69639628     0.78810
C742        C  0.33716858  0.77393278  0.69235946     0.77860
Zn743      Zn  0.16836795  0.83771593  0.81273878     1.49720
Zn744      Zn  0.10326326  0.77312031  0.89459192     1.49360
Zn745      Zn  0.22683652  0.82766834  0.89615173     1.49110
Zn746      Zn  0.17121443  0.89752547  0.89907037     1.49480
O747        O  0.16745293  0.83419928  0.87568604    -1.83420
O748        O  0.11031138  0.77103021  0.78738008    -0.74050
O749        O  0.11962257  0.72689376  0.93118038    -0.73870
O750        O  0.27581408  0.83720545  0.84800555    -0.73380
O751        O  0.06557277  0.72644127  0.84468207    -0.74060
O752        O  0.23563437  0.84566555  0.79028715    -0.73660
O753        O  0.20447901  0.75842684  0.92552611    -0.74240
O754        O  0.23355564  0.93492163  0.93982399    -0.73630
O755        O  0.05500145  0.79365739  0.92572799    -0.74390
O756        O  0.26972385  0.88470770  0.93753074    -0.73780
O757        O  0.10566825  0.87887809  0.93115452    -0.74250
O758        O  0.17242469  0.94593742  0.85155992    -0.74160
O759        O  0.16148920  0.89931864  0.79213377    -0.73950
C760        C  0.07337460  0.73043885  0.80421578     0.77840
C761        C  0.16013381  0.72344340  0.93826694     0.78330
C762        C  0.27397298  0.84448510  0.80773695     0.77290
C763        C  0.26896418  0.92470058  0.95123546     0.77670
C764        C  0.06276811  0.83791967  0.93827791     0.78810
C765        C  0.16518570  0.93930226  0.81090647     0.77860
C766        C  0.99941532  0.54795255  0.00094000     0.03000
C767        C  0.04711244  0.54766434  0.00065928     0.03000
C768        C  0.04770400  0.49997106  0.00021619     0.03000
C769        C  0.50041511  0.95246167  0.75074014     0.03000
C770        C  0.45266766  0.95259364  0.75077012     0.03000
C771        C  0.45219249  0.00033719  0.75059885     0.03000
C772        C  0.34348735  0.52253536  0.78912063     0.03840
C773        C  0.30213940  0.48417508  0.01513256    -0.12310
C774        C  0.31148331  0.96052594  0.97987664     0.01340
C775        C  0.36205958  0.97049331  0.97237975    -0.10840
C776        C  0.40175315  0.49998993  0.75208464     0.03830
C777        C  0.39231174  0.52687811  0.78480993    -0.10260
H778        H  0.26301147  0.97155984  0.02406329     0.09430
H779        H  0.36979776  0.95227672  0.94527318     0.06960
H780        H  0.42303974  0.55147451  0.80693192     0.06800
C781        C  0.34413864  0.81815434  0.96921035     0.03840
C782        C  0.30585975  0.81328021  0.74803377    -0.12310
C783        C  0.31630411  0.85004741  0.78004751     0.01340
C784        C  0.36591389  0.89273847  0.78361761    -0.10840
C785        C  0.40263902  0.90245678  0.75112043     0.03830
C786        C  0.39115763  0.86479367  0.96869221    -0.10260
H787        H  0.26732115  0.78183120  0.74605493     0.09430
H788        H  0.37446021  0.92057780  0.80935381     0.06960
H789        H  0.41950098  0.87085853  0.94419996     0.06800
C790        C  0.02323486  0.84326434  0.96362598     0.03840
C791        C  0.02717716  0.89211474  0.96732089    -0.12310
C792        C  0.00034480  0.90208660  0.99971582     0.01340
C793        C  0.47135559  0.86298949  0.77980096    -0.10840
C794        C  0.46150917  0.81228881  0.77287806     0.03830
C795        C  0.48486380  0.80233989  0.98774538    -0.10260
H796        H  0.05136689  0.92245901  0.94495022     0.09430
H797        H  0.45336812  0.87124598  0.80672846     0.06960
H798        H  0.47138283  0.76299648  0.72870204     0.06800
C799        C  0.47541925  0.65803977  0.96700757     0.03840
C800        C  0.51208736  0.69776042  0.74312805    -0.12310
C801        C  0.03778864  0.68762856  0.77601854     0.01340
C802        C  0.02911438  0.63717591  0.78154213    -0.10840
C803        C  0.49945204  0.59852486  0.00083990     0.03830
C804        C  0.47184438  0.60921382  0.96896693    -0.10260
H805        H  0.02144955  0.73693483  0.73900242     0.09430
H806        H  0.04865764  0.62904423  0.80750068     0.06960
H807        H  0.44712794  0.57952448  0.94613657     0.06800
C808        C  0.15808489  0.97699405  0.78470516     0.03840
C809        C  0.10949152  0.97369786  0.78274998    -0.12310
C810        C  0.09831043  0.00014500  0.75028080     0.01340
C811        C  0.13630039  0.52851940  0.96895211    -0.10840
C812        C  0.18690289  0.53761954  0.97460374     0.03830
C813        C  0.19744847  0.51259602  0.75791298    -0.10260
H814        H  0.08016114  0.94974227  0.80591491     0.09430
H815        H  0.12773443  0.54724324  0.94262657     0.06960
H816        H  0.23660648  0.52163569  0.01205551     0.06800
C817        C  0.18640059  0.64846692  0.77320361     0.03840
C818        C  0.19593103  0.68129709  0.98785671    -0.12310
C819        C  0.15478246  0.67870519  0.96360794     0.01340
C820        C  0.10641063  0.63402076  0.96688927    -0.10840
C821        C  0.09704033  0.59749454  0.99947013     0.03830
C822        C  0.13612111  0.60776041  0.77996939    -0.10260
H823        H  0.23506089  0.70706298  0.97858725     0.09430
H824        H  0.07597272  0.62799661  0.94431558     0.06960
H825        H  0.12829464  0.58173666  0.80701677     0.06800
Zn826      Zn  0.32610681  0.72608972  0.85340315     1.49720
Zn827      Zn  0.27330863  0.60186676  0.85667795     1.49360
Zn828      Zn  0.39670749  0.67138411  0.85229084     1.49110
Zn829      Zn  0.33650044  0.66997138  0.93845040     1.49480
O830        O  0.33338485  0.66763967  0.87534174    -1.83420
O831        O  0.26178891  0.70043692  0.81544218    -0.74050
O832        O  0.29446490  0.55314868  0.82843895    -0.73870
O833        O  0.43456149  0.73354590  0.81186146    -0.73380
O834        O  0.22997729  0.61503414  0.81459269    -0.74060
O835        O  0.38625520  0.77161543  0.81570714    -0.73660
O836        O  0.37871163  0.60601572  0.81994248    -0.74240
O837        O  0.39864384  0.66343585  0.95943809    -0.73630
O838        O  0.22507092  0.56550134  0.90586886    -0.74390
O839        O  0.44435003  0.67203362  0.90009493    -0.73780
O840        O  0.27009565  0.61055146  0.96327829    -0.74250
O841        O  0.34256942  0.73796967  0.96011940    -0.74160
O842        O  0.32786583  0.77338575  0.90203960    -0.73950
C843        C  0.22856680  0.65521737  0.80237331     0.77840
C844        C  0.33835777  0.56207098  0.81446018     0.78330
C845        C  0.42554053  0.77004281  0.80149210     0.77290
C846        C  0.43797155  0.66564607  0.94076493     0.77670
C847        C  0.22941884  0.57335501  0.94639318     0.78810
C848        C  0.33716990  0.77393541  0.94235596     0.77860
Zn849      Zn  0.66835737  0.33771275  0.06273287     1.49720
Zn850      Zn  0.60324751  0.27311797  0.14458934     1.49360
Zn851      Zn  0.72681707  0.32767115  0.14615123     1.49110
Zn852      Zn  0.67118788  0.39752470  0.14905652     1.49480
O853        O  0.66743359  0.33419819  0.12568014    -1.83420
O854        O  0.61031023  0.27102173  0.03737876    -0.74050
O855        O  0.61960934  0.22688721  0.18117363    -0.73870
O856        O  0.77579853  0.33720272  0.09801185    -0.73380
O857        O  0.56556221  0.22643778  0.09467956    -0.74060
O858        O  0.73562671  0.34566107  0.04028751    -0.73660
O859        O  0.70446804  0.25843337  0.17552601    -0.74240
O860        O  0.73352937  0.43492926  0.18980662    -0.73630
O861        O  0.55498495  0.29365686  0.17572480    -0.74390
O862        O  0.76969653  0.38471323  0.18752664    -0.73780
O863        O  0.60564351  0.37887976  0.18114189    -0.74250
O864        O  0.67239312  0.44592793  0.10154143    -0.74160
O865        O  0.66147218  0.39930978  0.04211778    -0.73950
C866        C  0.57337281  0.23043120  0.05421445     0.77840
C867        C  0.66012486  0.22344209  0.18825939     0.78330
C868        C  0.77396101  0.34447799  0.05774160     0.77290
C869        C  0.76893673  0.42470885  0.20122339     0.77670
C870        C  0.56274716  0.33791939  0.18827023     0.78810
C871        C  0.66516059  0.43929163  0.06088767     0.77860
C872        C  0.49942645  0.04794628  0.25095259     0.03000
C873        C  0.54712537  0.04766263  0.25066494     0.03000
C874        C  0.54772168  0.99997177  0.25022558     0.03000
C875        C  0.00039271  0.45245838  0.00072208     0.03000
C876        C  0.95264578  0.45259250  0.00075820     0.03000
C877        C  0.95217271  0.50033764  0.00059697     0.03000
C878        C  0.84351466  0.02252802  0.03912870     0.03840
C879        C  0.80215168  0.98416251  0.26514819    -0.12310
C880        C  0.81145538  0.46053745  0.22986161     0.01340
C881        C  0.86203118  0.47050481  0.22236318    -0.10840
C882        C  0.90177909  0.99997741  0.00209780     0.03830
C883        C  0.89233883  0.02687031  0.03481965    -0.10260
H884        H  0.76298241  0.47156883  0.27404776     0.09430
H885        H  0.86976851  0.45228864  0.19525574     0.06960
H886        H  0.92306761  0.05147070  0.05693949     0.06800
C887        C  0.84413090  0.31812196  0.21924436     0.03840
C888        C  0.80585047  0.31323975  0.99806400    -0.12310
C889        C  0.81629783  0.35003851  0.03005890     0.01340
C890        C  0.86589536  0.39273970  0.03361244    -0.10840
C891        C  0.90261816  0.40245683  0.00111238     0.03830
C892        C  0.89111976  0.36478224  0.21868807    -0.10260
H893        H  0.76735847  0.28180091  0.99611697     0.09430
H894        H  0.87443959  0.42058807  0.05934177     0.06960
H895        H  0.91945273  0.37085353  0.19418302     0.06800
C896        C  0.52321303  0.34326200  0.21361875     0.03840
C897        C  0.52714062  0.39210779  0.21730138    -0.12310
C898        C  0.50030584  0.40208128  0.24969355     0.01340
C899        C  0.97134057  0.36298973  0.02978944    -0.10840
C900        C  0.96150619  0.31229103  0.02287743     0.03830
C901        C  0.98485868  0.30234090  0.23775271    -0.10260
H902        H  0.55132478  0.42244925  0.19492632     0.09430
H903        H  0.95335317  0.37124830  0.05671574     0.06960
H904        H  0.97139288  0.26299451  0.97871615     0.06800
C905        C  0.97543523  0.15803002  0.21700031     0.03840
C906        C  0.01209481  0.19774483  0.99312376    -0.12310
C907        C  0.53779586  0.18761779  0.02601714     0.01340
C908        C  0.52913055  0.13716843  0.03154208    -0.10840
C909        C  0.99945931  0.09851660  0.25084761     0.03830
C910        C  0.97185318  0.10920132  0.21897030    -0.10260
H911        H  0.52145173  0.23691750  0.98899550     0.09430
H912        H  0.54867585  0.12904140  0.05750191     0.06960
H913        H  0.94713466  0.07950785  0.19614370     0.06800
C914        C  0.65806021  0.47698161  0.03468342     0.03840
C915        C  0.60946835  0.47368865  0.03272971    -0.12310
C916        C  0.59828933  0.50014046  0.00026351     0.01340
C917        C  0.63631414  0.02851630  0.21895029    -0.10840
C918        C  0.68691456  0.03760599  0.22459181     0.03830
C919        C  0.69747678  0.01258477  0.00790536    -0.10260
H920        H  0.58013756  0.44973232  0.05589407     0.09430
H921        H  0.62774600  0.04724038  0.19262637     0.06960
H922        H  0.73661923  0.02161276  0.26203221     0.06800
C923        C  0.68642659  0.14846591  0.02319127     0.03840
C924        C  0.69594277  0.18128994  0.23782041    -0.12310
C925        C  0.65477605  0.17869758  0.21359170     0.01340
C926        C  0.60640857  0.13401726  0.21688301    -0.10840
C927        C  0.59704880  0.09749394  0.24946510     0.03830
C928        C  0.63615111  0.10776294  0.02996340    -0.10260
H929        H  0.73504262  0.20702024  0.22852808     0.09430
H930        H  0.57596281  0.12799063  0.19431636     0.06960
H931        H  0.62832883  0.08174241  0.05701334     0.06800
Zn932      Zn  0.82611907  0.22608596  0.10341623     1.49720
Zn933      Zn  0.77332979  0.10186430  0.10666940     1.49360
Zn934      Zn  0.89672602  0.17138433  0.10228753     1.49110
Zn935      Zn  0.83651349  0.16995267  0.18845067     1.49480
O936        O  0.83340209  0.16763444  0.12534176    -1.83420
O937        O  0.76180557  0.20043749  0.06544511    -0.74050
O938        O  0.79449077  0.05314543  0.07843891    -0.73870
O939        O  0.93456900  0.23354798  0.06185799    -0.73380
O940        O  0.73001302  0.11503773  0.06457248    -0.74060
O941        O  0.88626725  0.27162130  0.06572454    -0.73660
O942        O  0.87873679  0.10601457  0.06994069    -0.74240
O943        O  0.89865551  0.16341450  0.20943164    -0.73630
O944        O  0.72507913  0.06549650  0.15585483    -0.74390
O945        O  0.94437291  0.17203812  0.15008976    -0.73780
O946        O  0.77011121  0.11052751  0.21326852    -0.74250
O947        O  0.84257002  0.23793877  0.21014120    -0.74160
O948        O  0.82787090  0.27336583  0.15206684    -0.73950
C949        C  0.72859657  0.15522133  0.05236089     0.77840
C950        C  0.83838427  0.06206761  0.06446194     0.78330
C951        C  0.92554757  0.27004746  0.05149832     0.77290
C952        C  0.93798794  0.16563603  0.19075826     0.77670
C953        C  0.72943008  0.07334052  0.19638059     0.78810
C954        C  0.83716688  0.27390501  0.19238452     0.77860
Zn955      Zn  0.66835809  0.33771301  0.31273948     1.49720
Zn956      Zn  0.60324164  0.27311722  0.39459536     1.49360
Zn957      Zn  0.72681113  0.32766787  0.39616056     1.49110
Zn958      Zn  0.67118278  0.39752363  0.39906224     1.49480
O959        O  0.66742952  0.33419697  0.37568685    -1.83420
O960        O  0.61031049  0.27102184  0.28738395    -0.74050
O961        O  0.61960047  0.22689019  0.43118777    -0.73870
O962        O  0.77579401  0.33719275  0.34802356    -0.73380
O963        O  0.56556078  0.22643683  0.34468401    -0.74060
O964        O  0.73563060  0.34566177  0.29029804    -0.73660
O965        O  0.70445850  0.25843278  0.42554186    -0.74240
O966        O  0.73352259  0.43492828  0.43981465    -0.73630
O967        O  0.55497577  0.29365533  0.42572638    -0.74390
O968        O  0.76969136  0.38471386  0.43753262    -0.73780
O969        O  0.60563585  0.37887812  0.43114325    -0.74250
O970        O  0.67238898  0.44592734  0.35154691    -0.74160
O971        O  0.66147219  0.39931009  0.29212355    -0.73950
C972        C  0.57337224  0.23043107  0.30421890     0.77840
C973        C  0.66011526  0.22344532  0.43827827     0.78330
C974        C  0.77396126  0.34447271  0.30775353     0.77290
C975        C  0.76893098  0.42470883  0.45123027     0.77670
C976        C  0.56273814  0.33791864  0.43826981     0.78810
C977        C  0.66515780  0.43929105  0.31089303     0.77860
C978        C  0.49940904  0.04794806  0.50095283     0.03000
C979        C  0.54710789  0.04766338  0.50067155     0.03000
C980        C  0.54770312  0.99997190  0.50022735     0.03000
C981        C  0.00038767  0.45245489  0.25071993     0.03000
C982        C  0.95264108  0.45259022  0.25075558     0.03000
C983        C  0.95216949  0.50033593  0.25059316     0.03000
C984        C  0.84349969  0.02252387  0.28913597     0.03840
C985        C  0.80213459  0.98417053  0.51513468    -0.12310
C986        C  0.81145030  0.46053762  0.47986813     0.01340
C987        C  0.86202626  0.47050567  0.47236852    -0.10840
C988        C  0.90176617  0.99997548  0.25210502     0.03830
C989        C  0.89232479  0.02686751  0.28482717    -0.10260
H990        H  0.76297853  0.47156762  0.52405751     0.09430
H991        H  0.86976330  0.45229057  0.44526013     0.06960
H992        H  0.92305325  0.05146827  0.30694710     0.06800
C993        C  0.84411804  0.31814321  0.46921534     0.03840
C994        C  0.80585368  0.31322195  0.24808716    -0.12310
C995        C  0.81629925  0.35003171  0.28007236     0.01340
C996        C  0.86589241  0.39274085  0.28361528    -0.10840
C997        C  0.90261257  0.40245531  0.25111308     0.03830
C998        C  0.89112003  0.36479038  0.46867946    -0.10260
H999        H  0.76737117  0.28177229  0.24615742     0.09430
H1000       H  0.87443631  0.42059442  0.30934022     0.06960
H1001       H  0.91946000  0.37085866  0.44418209     0.06800
C1002       C  0.52320311  0.34326317  0.46361506     0.03840
C1003       C  0.52713697  0.39211115  0.46730231    -0.12310
C1004       C  0.50030298  0.40208412  0.49969545     0.01340
C1005       C  0.97133437  0.36298589  0.27978800    -0.10840
C1006       C  0.96150122  0.31228728  0.27287725     0.03830
C1007       C  0.98484235  0.30234122  0.48774336    -0.10260
H1008       H  0.55132444  0.42245403  0.44492965     0.09430
H1009       H  0.95334580  0.37124436  0.30671347     0.06960
H1010       H  0.97139244  0.26299075  0.22871960     0.06800
C1011       C  0.97541105  0.15803334  0.46701255     0.03840
C1012       C  0.01209671  0.19774738  0.24312528    -0.12310
C1013       C  0.53779433  0.18761838  0.27602103     0.01340
C1014       C  0.52912220  0.13716685  0.28154910    -0.10840
C1015       C  0.99944167  0.09851939  0.50085059     0.03830
C1016       C  0.97183567  0.10920708  0.46897491    -0.10260
H1017       H  0.52145958  0.23692144  0.23899365     0.09430
H1018       H  0.54866617  0.12903847  0.30750919     0.06960
H1019       H  0.94712122  0.07951712  0.44614421     0.06800
C1020       C  0.65805620  0.47698008  0.28468798     0.03840
C1021       C  0.60946303  0.47368438  0.28273109    -0.12310
C1022       C  0.59828487  0.50013586  0.25026372     0.01340
C1023       C  0.63629692  0.02852047  0.46895660    -0.10840
C1024       C  0.68689882  0.03761631  0.47460170     0.03830
C1025       C  0.69746228  0.01257686  0.25789338    -0.10260
H1026       H  0.58013114  0.44972707  0.30589428     0.09430
H1027       H  0.62772837  0.04724377  0.44263224     0.06960
H1028       H  0.73660620  0.02163474  0.51205061     0.06800
C1029       C  0.68641350  0.14845879  0.27318370     0.03840
C1030       C  0.69592655  0.18129952  0.48785602    -0.12310
C1031       C  0.65476455  0.17870439  0.46361740     0.01340
C1032       C  0.60639791  0.13402174  0.46690118    -0.10840
C1033       C  0.59703250  0.09749434  0.49948073     0.03830
C1034       C  0.63613780  0.10775955  0.27995963    -0.10260
H1035       H  0.73503004  0.20703910  0.47857964     0.09430
H1036       H  0.57595648  0.12799572  0.44432979     0.06960
H1037       H  0.62831571  0.08174028  0.30701059     0.06800
Zn1038     Zn  0.82610465  0.22608475  0.35340503     1.49720
Zn1039     Zn  0.77331182  0.10186158  0.35667352     1.49360
Zn1040     Zn  0.89670932  0.17138186  0.35229197     1.49110
Zn1041     Zn  0.83649523  0.16996479  0.43845013     1.49480
O1042       O  0.83338453  0.16763480  0.37534117    -1.83420
O1043       O  0.76179602  0.20043356  0.31543069    -0.74050
O1044       O  0.79447309  0.05314156  0.32844307    -0.73870
O1045       O  0.93455979  0.23354503  0.31186167    -0.73380
O1046       O  0.72999428  0.11503221  0.31457458    -0.74060
O1047       O  0.88625601  0.27161672  0.31571628    -0.73660
O1048       O  0.87871992  0.10601020  0.31994807    -0.74240
O1049       O  0.89863585  0.16342713  0.45943884    -0.73630
O1050       O  0.72506424  0.06549779  0.40586349    -0.74390
O1051       O  0.94435018  0.17203425  0.40009864    -0.73780
O1052       O  0.77009171  0.11054371  0.46327360    -0.74250
O1053       O  0.84255612  0.23795878  0.46012509    -0.74160
O1054       O  0.82785168  0.27337294  0.40204465    -0.73950
C1055       C  0.72858321  0.15521580  0.30235376     0.77840
C1056       C  0.83836756  0.06206333  0.31446834     0.78330
C1057       C  0.92553911  0.27004359  0.30149663     0.77290
C1058       C  0.93796597  0.16564048  0.44076777     0.77670
C1059       C  0.72941330  0.07334996  0.44638846     0.78810
C1060       C  0.83715165  0.27392125  0.44236203     0.77860
Zn1061     Zn  0.66834354  0.33770887  0.56273619     1.49720
Zn1062     Zn  0.60325025  0.27312031  0.64460017     1.49360
Zn1063     Zn  0.72681906  0.32767581  0.64614975     1.49110
Zn1064     Zn  0.67119023  0.39752963  0.64905721     1.49480
O1065       O  0.66743206  0.33419995  0.62568358    -1.83420
O1066       O  0.61028912  0.27101868  0.53738852    -0.74050
O1067       O  0.61961933  0.22689554  0.68118691    -0.73870
O1068       O  0.77579515  0.33721137  0.59800443    -0.73380
O1069       O  0.56555512  0.22643551  0.59469467    -0.74060
O1070       O  0.73560846  0.34565434  0.54028337    -0.73660
O1071       O  0.70447616  0.25843814  0.67552646    -0.74240
O1072       O  0.73353135  0.43493358  0.68980838    -0.73630
O1073       O  0.55499127  0.29366295  0.67573539    -0.74390
O1074       O  0.76970069  0.38471984  0.68752397    -0.73780
O1075       O  0.60564583  0.37888769  0.68114013    -0.74250
O1076       O  0.67239640  0.44593296  0.60154149    -0.74160
O1077       O  0.66145737  0.39930509  0.54212083    -0.73950
C1078       C  0.57335510  0.23042881  0.55422808     0.77840
C1079       C  0.66013559  0.22345030  0.68826848     0.78330
C1080       C  0.77394883  0.34447962  0.55773370     0.77290
C1081       C  0.76893999  0.42471413  0.70122318     0.77670
C1082       C  0.56275125  0.33792730  0.68827308     0.78810
C1083       C  0.66515395  0.43929124  0.56088897     0.77860
C1084       C  0.49943368  0.04795359  0.75093898     0.03000
C1085       C  0.54713221  0.04766783  0.75066419     0.03000
C1086       C  0.54772551  0.99997499  0.75023123     0.03000
C1087       C  0.00038570  0.45245790  0.50072442     0.03000
C1088       C  0.95263870  0.45259173  0.50075983     0.03000
C1089       C  0.95216552  0.50033681  0.50059787     0.03000
C1090       C  0.84348236  0.02252663  0.53912617     0.03840
C1091       C  0.80215966  0.98417949  0.76511971    -0.12310
C1092       C  0.81145843  0.46054194  0.72986254     0.01340
C1093       C  0.86203462  0.47050936  0.72236519    -0.10840
C1094       C  0.90174819  0.99997816  0.50209468     0.03830
C1095       C  0.89230570  0.02686636  0.53481919    -0.10260
H1096       H  0.76298465  0.47157160  0.77404941     0.09430
H1097       H  0.86977280  0.45229384  0.69525778     0.06960
H1098       H  0.92303255  0.05146217  0.55694231     0.06800
C1099       C  0.84412781  0.31814491  0.71922259     0.03840
C1100       C  0.80583075  0.31325540  0.49803998    -0.12310
C1101       C  0.81628402  0.35004354  0.53004685     0.01340
C1102       C  0.86588583  0.39273618  0.53360971    -0.10840
C1103       C  0.90261070  0.40245621  0.50111064     0.03830
C1104       C  0.89112895  0.36479328  0.71868463    -0.10260
H1105       H  0.76733560  0.28183199  0.49607678     0.09430
H1106       H  0.87443218  0.42057922  0.55934409     0.06960
H1107       H  0.91946854  0.37086085  0.69418715     0.06800
C1108       C  0.52321693  0.34327165  0.71361925     0.03840
C1109       C  0.52714785  0.39211842  0.71730520    -0.12310
C1110       C  0.50031286  0.40209043  0.74969823     0.01340
C1111       C  0.97132865  0.36298651  0.52978800    -0.10840
C1112       C  0.96148899  0.31228670  0.52287158     0.03830
C1113       C  0.98485849  0.30234999  0.73774903    -0.10260
H1114       H  0.55133362  0.42246105  0.69493169     0.09430
H1115       H  0.95334189  0.37124444  0.55671518     0.06960
H1116       H  0.97136957  0.26299209  0.47870255     0.06800
C1117       C  0.97543125  0.15803637  0.71699740     0.03840
C1118       C  0.01206887  0.19774794  0.49314202    -0.12310
C1119       C  0.53777007  0.18761649  0.52603346     0.01340
C1120       C  0.52910115  0.13716549  0.53155630    -0.10840
C1121       C  0.99946700  0.09852498  0.75083395     0.03830
C1122       C  0.97186066  0.10921177  0.71895750    -0.10260
H1123       H  0.52142980  0.23692155  0.48901475     0.09430
H1124       H  0.54864598  0.12903569  0.55751475     0.06960
H1125       H  0.94714743  0.07952151  0.69612651     0.06800
C1126       C  0.65805282  0.47698059  0.53468431     0.03840
C1127       C  0.60946082  0.47368762  0.53273060    -0.12310
C1128       C  0.59828198  0.50014033  0.50026494     0.01340
C1129       C  0.63631882  0.02851728  0.71896558    -0.10840
C1130       C  0.68692195  0.03762020  0.72461700     0.03830
C1131       C  0.69744761  0.01259096  0.50790620    -0.10260
H1132       H  0.58012997  0.44973103  0.55589480     0.09430
H1133       H  0.62775009  0.04723530  0.69263708     0.06960
H1134       H  0.73663074  0.02165143  0.76207600     0.06800
C1135       C  0.68639283  0.14845890  0.52321231     0.03840
C1136       C  0.69595194  0.18130480  0.73784265    -0.12310
C1137       C  0.65478943  0.17870838  0.71360410     0.01340
C1138       C  0.60642339  0.13402409  0.71688818    -0.10840
C1139       C  0.59705811  0.09749886  0.74946983     0.03830
C1140       C  0.63611714  0.10775446  0.52997893    -0.10260
H1141       H  0.73505640  0.20704676  0.72856541     0.09430
H1142       H  0.57598197  0.12799669  0.69431638     0.06960
H1143       H  0.62829214  0.08172888  0.55702556     0.06800
Zn1144     Zn  0.82610208  0.22608465  0.60341199     1.49720
Zn1145     Zn  0.77330980  0.10186403  0.60668300     1.49360
Zn1146     Zn  0.89670729  0.17138206  0.60228699     1.49110
Zn1147     Zn  0.83651181  0.16997005  0.68845413     1.49480
O1148       O  0.83338735  0.16763700  0.62534520    -1.83420
O1149       O  0.76178330  0.20043090  0.56545084    -0.74050
O1150       O  0.79446273  0.05314345  0.57844407    -0.73870
O1151       O  0.93455195  0.23354546  0.56185580    -0.73380
O1152       O  0.72997558  0.11502896  0.56459786    -0.74060
O1153       O  0.88624635  0.27161511  0.56571444    -0.73660
O1154       O  0.87870785  0.10601189  0.56993883    -0.74240
O1155       O  0.89865805  0.16343611  0.70943375    -0.73630
O1156       O  0.72507836  0.06550157  0.65587812    -0.74390
O1157       O  0.94435561  0.17202845  0.65008618    -0.73780
O1158       O  0.77011493  0.11054703  0.71328509    -0.74250
O1159       O  0.84257198  0.23796352  0.71013069    -0.74160
O1160       O  0.82785624  0.27337337  0.65205294    -0.73950
C1161       C  0.72856361  0.15521281  0.55237988     0.77840
C1162       C  0.83835417  0.06206552  0.56446192     0.78330
C1163       C  0.92552859  0.27004249  0.55149150     0.77290
C1164       C  0.93798158  0.16564187  0.69075676     0.77670
C1165       C  0.72943443  0.07335292  0.69640277     0.78810
C1166       C  0.83716217  0.27392369  0.69236919     0.77860
Zn1167     Zn  0.66835150  0.33771442  0.81273488     1.49720
Zn1168     Zn  0.60325173  0.27311769  0.89459366     1.49360
Zn1169     Zn  0.72682098  0.32767515  0.89614975     1.49110
Zn1170     Zn  0.67119153  0.39752757  0.89905870     1.49480
O1171       O  0.66743492  0.33419979  0.87568209    -1.83420
O1172       O  0.61030170  0.27102442  0.78738197    -0.74050
O1173       O  0.61961936  0.22689031  0.93117921    -0.73870
O1174       O  0.77579936  0.33721240  0.84800625    -0.73380
O1175       O  0.56556264  0.22643570  0.84468429    -0.74060
O1176       O  0.73561875  0.34566380  0.79028472    -0.73660
O1177       O  0.70447734  0.25843679  0.92552411    -0.74240
O1178       O  0.73353096  0.43493006  0.93981152    -0.73630
O1179       O  0.55499012  0.29365824  0.92572900    -0.74390
O1180       O  0.76970070  0.38471677  0.93752613    -0.73780
O1181       O  0.60564631  0.37888216  0.93114107    -0.74250
O1182       O  0.67239909  0.44593413  0.85154528    -0.74160
O1183       O  0.66146555  0.39931171  0.79212217    -0.73950
C1184       C  0.57336742  0.23043202  0.80421827     0.77840
C1185       C  0.66013609  0.22344634  0.93826239     0.78330
C1186       C  0.77395680  0.34448550  0.80773607     0.77290
C1187       C  0.76893941  0.42471039  0.95122627     0.77670
C1188       C  0.56275085  0.33792155  0.93827091     0.78810
C1189       C  0.66516009  0.43929600  0.81089221     0.77860
C1190       C  0.49943968  0.04794879  0.00094619     0.03000
C1191       C  0.54713894  0.04766497  0.00066507     0.03000
C1192       C  0.54773431  0.99997327  0.00023041     0.03000
C1193       C  0.00039377  0.45246351  0.75072651     0.03000
C1194       C  0.95264654  0.45259676  0.75076133     0.03000
C1195       C  0.95217287  0.50034158  0.75059752     0.03000
C1196       C  0.84350763  0.02253556  0.78911153     0.03840
C1197       C  0.80216571  0.98416707  0.01514153    -0.12310
C1198       C  0.81145771  0.46053771  0.97986578     0.01340
C1199       C  0.86203386  0.47050595  0.97236710    -0.10840
C1200       C  0.90177238  0.99998444  0.75208168     0.03830
C1201       C  0.89233075  0.02687542  0.78480414    -0.10260
H1202       H  0.76298458  0.47156744  0.02405375     0.09430
H1203       H  0.86977160  0.45229097  0.94525902     0.06960
H1204       H  0.92305791  0.05147203  0.80692675     0.06800
C1205       C  0.84413301  0.31813200  0.96923197     0.03840
C1206       C  0.80584102  0.31325805  0.74804698    -0.12310
C1207       C  0.81629234  0.35004863  0.78005053     0.01340
C1208       C  0.86589365  0.39274292  0.78361190    -0.10840
C1209       C  0.90261887  0.40246097  0.75111372     0.03830
C1210       C  0.89112790  0.36478682  0.96868529    -0.10260
H1211       H  0.76734447  0.28183008  0.74608672     0.09430
H1212       H  0.87443909  0.42058768  0.80934456     0.06960
H1213       H  0.91946454  0.37085662  0.94418430     0.06800
C1214       C  0.52321645  0.34326509  0.96361789     0.03840
C1215       C  0.52714564  0.39211150  0.96730152    -0.12310
C1216       C  0.50031183  0.40208509  0.99969453     0.01340
C1217       C  0.97134076  0.36299377  0.77979179    -0.10840
C1218       C  0.96150510  0.31229507  0.77287711     0.03830
C1219       C  0.98486126  0.30234447  0.98775126    -0.10260
H1220       H  0.55133014  0.42245317  0.94492675     0.09430
H1221       H  0.95335300  0.37125114  0.80671853     0.06960
H1222       H  0.97138571  0.26300079  0.72870859     0.06800
C1223       C  0.97543850  0.15802824  0.96699542     0.03840
C1224       C  0.01208458  0.19774995  0.74313029    -0.12310
C1225       C  0.53778777  0.18762023  0.77602032     0.01340
C1226       C  0.52912416  0.13717091  0.78154012    -0.10840
C1227       C  0.99947116  0.09851871  0.00083934     0.03830
C1228       C  0.97186350  0.10920208  0.96896191    -0.10260
H1229       H  0.52143941  0.23692217  0.73900712     0.09430
H1230       H  0.54866896  0.12904156  0.80749888     0.06960
H1231       H  0.94714773  0.07950891  0.94613401     0.06800
C1232       C  0.65806006  0.47698698  0.78468893     0.03840
C1233       C  0.60946837  0.47369449  0.78273511    -0.12310
C1234       C  0.59828954  0.50014600  0.75026839     0.01340
C1235       C  0.63632648  0.02851656  0.96895782    -0.10840
C1236       C  0.68692778  0.03761041  0.97460164     0.03830
C1237       C  0.69747134  0.01260132  0.75792611    -0.10260
H1238       H  0.58013749  0.44973852  0.80589953     0.09430
H1239       H  0.62775760  0.04723817  0.94263233     0.06960
H1240       H  0.73663441  0.02162426  0.01204621     0.06800
C1241       C  0.68641917  0.14846597  0.77320021     0.03840
C1242       C  0.69595597  0.18129935  0.98783021    -0.12310
C1243       C  0.65479081  0.17870388  0.96359666     0.01340
C1244       C  0.60642461  0.13402055  0.96688491    -0.10840
C1245       C  0.59706340  0.09749684  0.99946701     0.03830
C1246       C  0.63614311  0.10776238  0.77996854    -0.10260
H1247       H  0.73505900  0.20703541  0.97854402     0.09430
H1248       H  0.57598060  0.12799248  0.94431583     0.06960
H1249       H  0.62831845  0.08173975  0.80701729     0.06800
Zn1250     Zn  0.82611788  0.22608563  0.85341332     1.49720
Zn1251     Zn  0.77332900  0.10186431  0.85667346     1.49360
Zn1252     Zn  0.89672505  0.17138452  0.85228349     1.49110
Zn1253     Zn  0.83652053  0.16996122  0.93844991     1.49480
O1254       O  0.83340300  0.16763593  0.87534111    -1.83420
O1255       O  0.76180349  0.20043618  0.81544673    -0.74050
O1256       O  0.79448808  0.05314718  0.82843629    -0.73870
O1257       O  0.93457046  0.23355274  0.81185817    -0.73380
O1258       O  0.73000244  0.11503529  0.81458408    -0.74060
O1259       O  0.88626367  0.27162087  0.81572034    -0.73660
O1260       O  0.87873165  0.10601959  0.81992799    -0.74240
O1261       O  0.89866396  0.16342361  0.95942932    -0.73630
O1262       O  0.72508836  0.06549619  0.90586348    -0.74390
O1263       O  0.94436935  0.17202711  0.90008407    -0.73780
O1264       O  0.77012110  0.11053634  0.96327367    -0.74250
O1265       O  0.84257817  0.23795105  0.96013440    -0.74160
O1266       O  0.82786801  0.27336804  0.90205884    -0.73950
C1267       C  0.72858869  0.15521933  0.80236933     0.77840
C1268       C  0.83837914  0.06207229  0.81445082     0.78330
C1269       C  0.92554643  0.27005007  0.80149667     0.77290
C1270       C  0.93799018  0.16563375  0.94075374     0.77670
C1271       C  0.72944127  0.07334444  0.94638863     0.78810
C1272       C  0.83716967  0.27391331  0.94237560     0.77860
Zn1273     Zn  0.66836799  0.83770769  0.06273745     1.49720
Zn1274     Zn  0.60326200  0.77312037  0.14459367     1.49360
Zn1275     Zn  0.72683617  0.82766936  0.14615186     1.49110
Zn1276     Zn  0.67121075  0.89752454  0.14906510     1.49480
O1277       O  0.66745171  0.83419758  0.12568502    -1.83420
O1278       O  0.61031084  0.77102151  0.03738261    -0.74050
O1279       O  0.61962144  0.72689449  0.18118178    -0.73870
O1280       O  0.77581968  0.83721215  0.09800718    -0.73380
O1281       O  0.56556962  0.72643876  0.09468590    -0.74060
O1282       O  0.73563222  0.84565310  0.04028608    -0.73660
O1283       O  0.70447729  0.75842536  0.17552345    -0.74240
O1284       O  0.73354772  0.93492107  0.18982333    -0.73630
O1285       O  0.55500063  0.79365834  0.17572968    -0.74390
O1286       O  0.76971619  0.88470703  0.18753477    -0.73780
O1287       O  0.60566135  0.87888087  0.18114461    -0.74250
O1288       O  0.67242768  0.94593315  0.10154929    -0.74160
O1289       O  0.66149360  0.89930974  0.04212611    -0.73950
C1290       C  0.57337259  0.73043273  0.05421979     0.77840
C1291       C  0.66013243  0.72344268  0.18826558     0.78330
C1292       C  0.77397497  0.84448213  0.05773709     0.77290
C1293       C  0.76895468  0.92469938  0.20123865     0.77670
C1294       C  0.56276348  0.83792165  0.18827273     0.78810
C1295       C  0.66519153  0.93929551  0.06089573     0.77860
C1296       C  0.49941283  0.54795037  0.25093596     0.03000
C1297       C  0.54710952  0.54766140  0.25065566     0.03000
C1298       C  0.54770013  0.49996743  0.25021436     0.03000
C1299       C  0.00042489  0.95245863  0.00074469     0.03000
C1300       C  0.95267631  0.95258864  0.00078074     0.03000
C1301       C  0.95219963  0.00033160  0.00061144     0.03000
C1302       C  0.84348756  0.52253113  0.03912336     0.03840
C1303       C  0.80213698  0.48417597  0.26512768    -0.12310
C1304       C  0.81147133  0.96052409  0.22988214     0.01340
C1305       C  0.86204812  0.97049317  0.22238584    -0.10840
C1306       C  0.90175335  0.49998681  0.00208533     0.03830
C1307       C  0.89231238  0.52687477  0.03481135    -0.10260
H1308       H  0.76299732  0.97155334  0.27407066     0.09430
H1309       H  0.86978773  0.95227881  0.19527840     0.06960
H1310       H  0.92304085  0.55147155  0.05693280     0.06800
C1311       C  0.84412913  0.81815311  0.21920839     0.03840
C1312       C  0.80585906  0.81328712  0.99802387    -0.12310
C1313       C  0.81630678  0.85004488  0.03004747     0.01340
C1314       C  0.86592072  0.89272890  0.03362612    -0.10840
C1315       C  0.90264774  0.90245065  0.00112947     0.03830
C1316       C  0.89114668  0.86479239  0.21869156    -0.10260
H1317       H  0.76731583  0.78184780  0.99603208     0.09430
H1318       H  0.87446822  0.92056350  0.05936655     0.06960
H1319       H  0.91949081  0.87085878  0.19419949     0.06800
C1320       C  0.52322876  0.84326578  0.21361956     0.03840
C1321       C  0.52716784  0.89211502  0.21731374    -0.12310
C1322       C  0.50033394  0.90208523  0.24970887     0.01340
C1323       C  0.97136556  0.86298595  0.02980403    -0.10840
C1324       C  0.96151347  0.81228402  0.02287773     0.03830
C1325       C  0.98485894  0.80234048  0.23774003    -0.10260
H1326       H  0.55135657  0.92245956  0.19494294     0.09430
H1327       H  0.95338037  0.87124283  0.05673302     0.06960
H1328       H  0.97137980  0.76299163  0.97869567     0.06800
C1329       C  0.97541423  0.65803713  0.21700778     0.03840
C1330       C  0.01208172  0.69775430  0.99313491    -0.12310
C1331       C  0.53778573  0.68762217  0.02602383     0.01340
C1332       C  0.52911526  0.63717055  0.03154450    -0.10840
C1333       C  0.99944971  0.59852264  0.25083640     0.03830
C1334       C  0.97184239  0.60921244  0.21896379    -0.10260
H1335       H  0.52144194  0.73692803  0.98901233     0.09430
H1336       H  0.54866045  0.62903909  0.05750157     0.06960
H1337       H  0.94712768  0.57952432  0.19613185     0.06800
C1338       C  0.65809329  0.97698621  0.03469131     0.03840
C1339       C  0.60950372  0.97369866  0.03274350    -0.12310
C1340       C  0.59832053  0.00014537  0.00027577     0.01340
C1341       C  0.63629792  0.52851507  0.21895313    -0.10840
C1342       C  0.68690104  0.53761798  0.22460787     0.03830
C1343       C  0.69744878  0.51259146  0.00790736    -0.10260
H1344       H  0.58017633  0.94974777  0.05591231     0.09430
H1345       H  0.62773256  0.54723769  0.19262624     0.06960
H1346       H  0.73660463  0.52164008  0.26206535     0.06800
C1347       C  0.68639979  0.64846020  0.02320942     0.03840
C1348       C  0.69592945  0.68129505  0.23785337    -0.12310
C1349       C  0.65478006  0.67870289  0.21360494     0.01340
C1350       C  0.60640839  0.63401868  0.21688574    -0.10840
C1351       C  0.59703758  0.59749152  0.24946623     0.03830
C1352       C  0.63612036  0.60775212  0.02997191    -0.10260
H1353       H  0.73505623  0.70705970  0.22858601     0.09430
H1354       H  0.57597051  0.62799512  0.19431211     0.06960
H1355       H  0.62829258  0.58172622  0.05701788     0.06800
Zn1356     Zn  0.82610827  0.72608764  0.10340321     1.49720
Zn1357     Zn  0.77330843  0.60186184  0.10668238     1.49360
Zn1358     Zn  0.89670517  0.67138003  0.10229140     1.49110
Zn1359     Zn  0.83649759  0.66997150  0.18845240     1.49480
O1360       O  0.83338373  0.66763714  0.12534367    -1.83420
O1361       O  0.76178938  0.70043083  0.06544484    -0.74050
O1362       O  0.79446450  0.55314365  0.07844223    -0.73870
O1363       O  0.93456164  0.73354041  0.06186114    -0.73380
O1364       O  0.72997509  0.61502731  0.06459943    -0.74060
O1365       O  0.88625766  0.77161240  0.06570575    -0.73660
O1366       O  0.87871062  0.60601169  0.06994428    -0.74240
O1367       O  0.89864150  0.66343736  0.20943938    -0.73630
O1368       O  0.72507139  0.56549687  0.15587352    -0.74390
O1369       O  0.94434496  0.67202863  0.15009548    -0.73780
O1370       O  0.77009339  0.61055150  0.21328205    -0.74250
O1371       O  0.84256315  0.73796926  0.21011994    -0.74160
O1372       O  0.82786375  0.77338465  0.15203775    -0.73950
C1373       C  0.72856531  0.65521051  0.05237909     0.77840
C1374       C  0.83835738  0.56206646  0.06446288     0.78330
C1375       C  0.92554241  0.77003816  0.05149101     0.77290
C1376       C  0.93796731  0.66564396  0.19076563     0.77670
C1377       C  0.72941774  0.57335298  0.19639746     0.78810
C1378       C  0.83716363  0.77393416  0.19235495     0.77860
Zn1379     Zn  0.66835469  0.83770443  0.31273400     1.49720
Zn1380     Zn  0.60324814  0.77311913  0.39459360     1.49360
Zn1381     Zn  0.72682115  0.82766973  0.39614868     1.49110
Zn1382     Zn  0.67119205  0.89752329  0.39905726     1.49480
O1383       O  0.66743600  0.83419601  0.37568143    -1.83420
O1384       O  0.61029988  0.77101688  0.28738305    -0.74050
O1385       O  0.61960993  0.72689573  0.43118458    -0.73870
O1386       O  0.77580511  0.83720972  0.34800505    -0.73380
O1387       O  0.56555784  0.72643499  0.34468673    -0.74060
O1388       O  0.73561843  0.84564849  0.29028275    -0.73660
O1389       O  0.70446580  0.75842861  0.42552516    -0.74240
O1390       O  0.73352917  0.93492417  0.43981294    -0.73630
O1391       O  0.55498541  0.79365837  0.42572723    -0.74390
O1392       O  0.76969982  0.88471180  0.43752678    -0.73780
O1393       O  0.60564293  0.87888194  0.43113593    -0.74250
O1394       O  0.67240915  0.94592852  0.35153971    -0.74160
O1395       O  0.66147965  0.89930450  0.29211797    -0.73950
C1396       C  0.57336251  0.73042809  0.30422082     0.77840
C1397       C  0.66012322  0.72344629  0.43826870     0.78330
C1398       C  0.77396076  0.84447778  0.30773448     0.77290
C1399       C  0.76893762  0.92470468  0.45122805     0.77670
C1400       C  0.56274636  0.83792242  0.43826653     0.78810
C1401       C  0.66517586  0.93929027  0.31088613     0.77860
C1402       C  0.49940752  0.54795211  0.50093979     0.03000
C1403       C  0.54710497  0.54766434  0.50065948     0.03000
C1404       C  0.54769682  0.49997088  0.50021756     0.03000
C1405       C  0.00041270  0.95245669  0.25074026     0.03000
C1406       C  0.95266369  0.95258635  0.25078187     0.03000
C1407       C  0.95218671  0.00032944  0.25061766     0.03000
C1408       C  0.84348559  0.52253181  0.28911849     0.03840
C1409       C  0.80213268  0.48417529  0.51513531    -0.12310
C1410       C  0.81145455  0.96053146  0.47986952     0.01340
C1411       C  0.86203103  0.97049895  0.47237395    -0.10840
C1412       C  0.90175079  0.49998628  0.25208100     0.03830
C1413       C  0.89231016  0.52687491  0.28480667    -0.10260
H1414       H  0.76297989  0.97156440  0.52405352     0.09430
H1415       H  0.86977062  0.95228504  0.44526617     0.06960
H1416       H  0.92303851  0.55147137  0.30692832     0.06800
C1417       C  0.84412094  0.81815526  0.46919759     0.03840
C1418       C  0.80584608  0.81328210  0.24802179    -0.12310
C1419       C  0.81629412  0.85004108  0.28004605     0.01340
C1420       C  0.86590733  0.89272448  0.28362602    -0.10840
C1421       C  0.90263549  0.90244821  0.25112968     0.03830
C1422       C  0.89113038  0.86479374  0.46867662    -0.10260
H1423       H  0.76730906  0.78184718  0.24603007     0.09430
H1424       H  0.87445410  0.92055818  0.30936727     0.06960
H1425       H  0.91947568  0.87086237  0.44418418     0.06800
C1426       C  0.52321134  0.84326693  0.46361264     0.03840
C1427       C  0.52714993  0.89211626  0.46730668    -0.12310
C1428       C  0.50031441  0.90208562  0.49970094     0.01340
C1429       C  0.97135726  0.86298422  0.27979780    -0.10840
C1430       C  0.96150779  0.81228316  0.27287180     0.03830
C1431       C  0.98484365  0.80234215  0.48773395    -0.10260
H1432       H  0.55134009  0.92246186  0.44493721     0.09430
H1433       H  0.95337211  0.87124014  0.30672739     0.06960
H1434       H  0.97137493  0.76299262  0.22868786     0.06800
C1435       C  0.97540648  0.65803662  0.46700811     0.03840
C1436       C  0.01207216  0.69774971  0.24313886    -0.12310
C1437       C  0.53777782  0.68761768  0.27602468     0.01340
C1438       C  0.52911108  0.63716706  0.28154259    -0.10840
C1439       C  0.99944318  0.59852402  0.50083942     0.03830
C1440       C  0.97183520  0.60921206  0.46896602    -0.10260
H1441       H  0.52143145  0.73692370  0.23901623     0.09430
H1442       H  0.54865668  0.62903539  0.30749917     0.06960
H1443       H  0.94712077  0.57952287  0.44613474     0.06800
C1444       C  0.65807898  0.97698056  0.28468045     0.03840
C1445       C  0.60949143  0.97369714  0.28273542    -0.12310
C1446       C  0.59830834  0.00014470  0.25026863     0.01340
C1447       C  0.63629375  0.52851959  0.46895335    -0.10840
C1448       C  0.68689601  0.53761847  0.47460426     0.03830
C1449       C  0.69744582  0.51259198  0.25791393    -0.10260
H1450       H  0.58016485  0.94974793  0.30590544     0.09430
H1451       H  0.62772802  0.54724384  0.44262801     0.06960
H1452       H  0.73659941  0.52163407  0.51205542     0.06800
C1453       C  0.68639621  0.64845650  0.27320548     0.03840
C1454       C  0.69592828  0.68130358  0.48785548    -0.12310
C1455       C  0.65476952  0.67870515  0.46360923     0.01340
C1456       C  0.60640200  0.63402248  0.46688994    -0.10840
C1457       C  0.59703161  0.59749426  0.49947024     0.03830
C1458       C  0.63611719  0.60774913  0.27996806    -0.10260
H1459       H  0.73503196  0.70704838  0.47859043     0.09430
H1460       H  0.57596271  0.62799725  0.44431625     0.06960
H1461       H  0.62828921  0.58172331  0.30701424     0.06800
Zn1462     Zn  0.82610403  0.72608512  0.35339705     1.49720
Zn1463     Zn  0.77330508  0.60185983  0.35667890     1.49360
Zn1464     Zn  0.89670213  0.67137987  0.35228779     1.49110
Zn1465     Zn  0.83649137  0.66997153  0.43844786     1.49480
O1466       O  0.83337972  0.66763585  0.37533923    -1.83420
O1467       O  0.76178571  0.70042774  0.31543987    -0.74050
O1468       O  0.79446303  0.55314283  0.32843973    -0.73870
O1469       O  0.93455947  0.73354103  0.31185735    -0.73380
O1470       O  0.72997181  0.61502433  0.31459557    -0.74060
O1471       O  0.88625211  0.77160945  0.31569919    -0.73660
O1472       O  0.87870850  0.60601239  0.31993945    -0.74240
O1473       O  0.89863449  0.66343751  0.45943671    -0.73630
O1474       O  0.72506659  0.56549457  0.40586943    -0.74390
O1475       O  0.94433934  0.67202682  0.40009397    -0.73780
O1476       O  0.77008716  0.61055225  0.46327723    -0.74250
O1477       O  0.84255421  0.73796889  0.46011385    -0.74160
O1478       O  0.82785776  0.77338245  0.40202906    -0.73950
C1479       C  0.72856189  0.65520740  0.30237485     0.77840
C1480       C  0.83835560  0.56206669  0.31445881     0.78330
C1481       C  0.92553812  0.77003698  0.30148555     0.77290
C1482       C  0.93796036  0.66564280  0.44076415     0.77670
C1483       C  0.72941213  0.57335263  0.44639311     0.78810
C1484       C  0.83715443  0.77393213  0.44234689     0.77860
Zn1485     Zn  0.66834672  0.83771071  0.56273139     1.49720
Zn1486     Zn  0.60325301  0.77312212  0.64459125     1.49360
Zn1487     Zn  0.72682385  0.82767042  0.64614193     1.49110
Zn1488     Zn  0.67120201  0.89752894  0.64905818     1.49480
O1489       O  0.66743882  0.83420009  0.62567874    -1.83420
O1490       O  0.61029032  0.77102273  0.53738089    -0.74050
O1491       O  0.61961595  0.72689791  0.68118017    -0.73870
O1492       O  0.77579394  0.83720166  0.59799207    -0.73380
O1493       O  0.56555808  0.72643733  0.59468652    -0.74060
O1494       O  0.73560875  0.84565578  0.54027488    -0.73660
O1495       O  0.70447180  0.75843159  0.67552063    -0.74240
O1496       O  0.73354900  0.93492999  0.68980532    -0.73630
O1497       O  0.55499463  0.79366256  0.67572694    -0.74390
O1498       O  0.76971627  0.88471487  0.68751516    -0.73780
O1499       O  0.60565974  0.87888413  0.68114819    -0.74250
O1500       O  0.67240590  0.94593492  0.60154436    -0.74160
O1501       O  0.66146502  0.89931013  0.54212118    -0.73950
C1502       C  0.57335683  0.73043202  0.55421994     0.77840
C1503       C  0.66012794  0.72344794  0.68826395     0.78330
C1504       C  0.77394762  0.84447588  0.55772220     0.77290
C1505       C  0.76895836  0.92470988  0.70121660     0.77670
C1506       C  0.56276118  0.83792525  0.68827525     0.78810
C1507       C  0.66516363  0.93929589  0.56089143     0.77860
C1508       C  0.49941472  0.54795667  0.75094060     0.03000
C1509       C  0.54711222  0.54766932  0.75066061     0.03000
C1510       C  0.54770454  0.49997633  0.75021999     0.03000
C1511       C  0.00039357  0.95245785  0.50073194     0.03000
C1512       C  0.95264522  0.95258859  0.50076856     0.03000
C1513       C  0.95216882  0.00033200  0.50060809     0.03000
C1514       C  0.84348205  0.52253190  0.53912476     0.03840
C1515       C  0.80213935  0.48417966  0.76512899    -0.12310
C1516       C  0.81147823  0.96053684  0.72985646     0.01340
C1517       C  0.86205411  0.97050093  0.72236259    -0.10840
C1518       C  0.90174619  0.49998587  0.50208668     0.03830
C1519       C  0.89230618  0.52687430  0.53481278    -0.10260
H1520       H  0.76300468  0.97157404  0.77403674     0.09430
H1521       H  0.86979259  0.95228270  0.69525742     0.06960
H1522       H  0.92303500  0.55147098  0.55693398     0.06800
C1523       C  0.84413566  0.81815139  0.71921325     0.03840
C1524       C  0.80582493  0.81327027  0.49801132    -0.12310
C1525       C  0.81628297  0.85004397  0.53003355     0.01340
C1526       C  0.86588934  0.89272627  0.53361041    -0.10840
C1527       C  0.90261863  0.90245224  0.50111384     0.03830
C1528       C  0.89114962  0.86479584  0.71868674    -0.10260
H1529       H  0.76732628  0.78186503  0.49602740     0.09430
H1530       H  0.87443607  0.92056156  0.55935160     0.06960
H1531       H  0.91949110  0.87086081  0.69419265     0.06800
C1532       C  0.52322919  0.84326928  0.71362538     0.03840
C1533       C  0.52716816  0.89211832  0.71731827    -0.12310
C1534       C  0.50033427  0.90208949  0.74971215     0.01340
C1535       C  0.97133631  0.86298469  0.52978817    -0.10840
C1536       C  0.96149059  0.81228444  0.52286447     0.03830
C1537       C  0.98486206  0.80234530  0.73774773    -0.10260
H1538       H  0.55135689  0.92246257  0.69494714     0.09430
H1539       H  0.95334972  0.87124037  0.55671682     0.06960
H1540       H  0.97136450  0.76299424  0.47868491     0.06800
C1541       C  0.97542379  0.65804568  0.71700067     0.03840
C1542       C  0.01206350  0.69775053  0.49313873    -0.12310
C1543       C  0.53777060  0.68762043  0.52602520     0.01340
C1544       C  0.52910451  0.63717004  0.53154429    -0.10840
C1545       C  0.99945094  0.59852923  0.75083830     0.03830
C1546       C  0.97184505  0.60921813  0.71896364    -0.10260
H1547       H  0.52141998  0.73692426  0.48901707     0.09430
H1548       H  0.54865124  0.62903978  0.55750083     0.06960
H1549       H  0.94712747  0.57952783  0.69613442     0.06800
C1550       C  0.65806283  0.97698654  0.53468827     0.03840
C1551       C  0.60947139  0.97369458  0.53273794    -0.12310
C1552       C  0.59828929  0.00014428  0.50027207     0.01340
C1553       C  0.63630064  0.52852327  0.71895595    -0.10840
C1554       C  0.68690293  0.53762280  0.72460739     0.03830
C1555       C  0.69744118  0.51258994  0.50790792    -0.10260
H1556       H  0.58014250  0.94973964  0.55590419     0.09430
H1557       H  0.62773449  0.54724605  0.69262968     0.06960
H1558       H  0.73660657  0.52164088  0.76206049     0.06800
C1559       C  0.68638878  0.64845943  0.52321002     0.03840
C1560       C  0.69592947  0.68130017  0.73784884    -0.12310
C1561       C  0.65477892  0.67870956  0.71360394     0.01340
C1562       C  0.60640749  0.63402510  0.71688754    -0.10840
C1563       C  0.59703956  0.59750010  0.74946906     0.03830
C1564       C  0.63611302  0.60775334  0.52997171    -0.10260
H1565       H  0.73505823  0.70706061  0.72857210     0.09430
H1566       H  0.57596836  0.62800006  0.69431495     0.06960
H1567       H  0.62828516  0.58172637  0.55701784     0.06800
Zn1568     Zn  0.82610039  0.72608760  0.60340431     1.49720
Zn1569     Zn  0.77330486  0.60186569  0.60667944     1.49360
Zn1570     Zn  0.89670432  0.67138605  0.60228650     1.49110
Zn1571     Zn  0.83650053  0.66997075  0.68844958     1.49480
O1572       O  0.83338192  0.66763942  0.62534093    -1.83420
O1573       O  0.76177769  0.70043155  0.56544913    -0.74050
O1574       O  0.79446059  0.55314718  0.57844138    -0.73870
O1575       O  0.93455030  0.73354388  0.56185042    -0.73380
O1576       O  0.72997111  0.61502957  0.56459495    -0.74060
O1577       O  0.88624290  0.77161180  0.56570156    -0.73660
O1578       O  0.87870720  0.60601423  0.56994280    -0.74240
O1579       O  0.89864567  0.66343646  0.70943319    -0.73630
O1580       O  0.72506829  0.56550245  0.65587134    -0.74390
O1581       O  0.94435335  0.67204247  0.65008905    -0.73780
O1582       O  0.77009730  0.61055130  0.71327953    -0.74250
O1583       O  0.84256867  0.73796753  0.71012148    -0.74160
O1584       O  0.82786373  0.77338373  0.65204245    -0.73950
C1585       C  0.72855798  0.65521328  0.55237873     0.77840
C1586       C  0.83835330  0.56206894  0.56446260     0.78330
C1587       C  0.92552633  0.77003905  0.55148162     0.77290
C1588       C  0.93797496  0.66565149  0.69075897     0.77670
C1589       C  0.72941858  0.57335622  0.69639559     0.78810
C1590       C  0.83716821  0.77393302  0.69235874     0.77860
Zn1591     Zn  0.66836806  0.83771593  0.81273881     1.49720
Zn1592     Zn  0.60326364  0.77312027  0.89459210     1.49360
Zn1593     Zn  0.72683687  0.82766837  0.89615157     1.49110
Zn1594     Zn  0.67121464  0.89752544  0.89907035     1.49480
O1595       O  0.66745320  0.83419927  0.87568606    -1.83420
O1596       O  0.61031153  0.77103019  0.78738020    -0.74050
O1597       O  0.61962311  0.72689395  0.93118066    -0.73870
O1598       O  0.77581435  0.83720554  0.84800527    -0.73380
O1599       O  0.56557325  0.72644111  0.84468227    -0.74060
O1600       O  0.73563442  0.84566563  0.79028702    -0.73660
O1601       O  0.70447948  0.75842684  0.92552598    -0.74240
O1602       O  0.73355569  0.93492141  0.93982419    -0.73630
O1603       O  0.55500162  0.79365718  0.92572809    -0.74390
O1604       O  0.76972421  0.88470778  0.93753054    -0.73780
O1605       O  0.60566811  0.87887800  0.93115401    -0.74250
O1606       O  0.67242526  0.94593759  0.85155994    -0.74160
O1607       O  0.66148920  0.89931857  0.79213383    -0.73950
C1608       C  0.57337493  0.73043873  0.80421596     0.77840
C1609       C  0.66013434  0.72344352  0.93826706     0.78330
C1610       C  0.77397309  0.84448521  0.80773669     0.77290
C1611       C  0.76896438  0.92470049  0.95123548     0.77670
C1612       C  0.56276802  0.83791955  0.93827751     0.78810
C1613       C  0.66518598  0.93930231  0.81090653     0.77860
C1614       C  0.49941573  0.54795257  0.00094002     0.03000
C1615       C  0.54711287  0.54766440  0.00065921     0.03000
C1616       C  0.54770447  0.49997113  0.00021609     0.03000
C1617       C  0.00041500  0.95246184  0.75073964     0.03000
C1618       C  0.95266758  0.95259388  0.75076958     0.03000
C1619       C  0.95219251  0.00033748  0.75059855     0.03000
C1620       C  0.84348761  0.52253564  0.78912012     0.03840
C1621       C  0.80213903  0.48417495  0.01513280    -0.12310
C1622       C  0.81148347  0.96052581  0.97987673     0.01340
C1623       C  0.86205975  0.97049311  0.97237997    -0.10840
C1624       C  0.90175340  0.49999023  0.75208412     0.03830
C1625       C  0.89231202  0.52687845  0.78480938    -0.10260
H1626       H  0.76301155  0.97155982  0.02406320     0.09430
H1627       H  0.86979799  0.95227650  0.94527345     0.06960
H1628       H  0.92304004  0.55147492  0.80693131     0.06800
C1629       C  0.84413876  0.81815476  0.96920977     0.03840
C1630       C  0.80585966  0.81328043  0.74803328    -0.12310
C1631       C  0.81630413  0.85004756  0.78004710     0.01340
C1632       C  0.86591388  0.89273865  0.78361711    -0.10840
C1633       C  0.90263890  0.90245704  0.75111980     0.03830
C1634       C  0.89115819  0.86479374  0.96869240    -0.10260
H1635       H  0.76732106  0.78183137  0.74605450     0.09430
H1636       H  0.87446029  0.92057793  0.80935337     0.06960
H1637       H  0.91950184  0.87085853  0.94420048     0.06800
C1638       C  0.52323453  0.84326429  0.96362517     0.03840
C1639       C  0.52717694  0.89211473  0.96732016    -0.12310
C1640       C  0.50034442  0.90208650  0.99971504     0.01340
C1641       C  0.97135530  0.86298958  0.77980022    -0.10840
C1642       C  0.96150868  0.81228887  0.77287714     0.03830
C1643       C  0.98486446  0.80234003  0.98774654    -0.10260
H1644       H  0.55136689  0.92245910  0.94494965     0.09430
H1645       H  0.95336791  0.87124605  0.80672779     0.06960
H1646       H  0.97138202  0.76299662  0.72870072     0.06800
C1647       C  0.97541987  0.65804012  0.96700663     0.03840
C1648       C  0.01208659  0.69776047  0.74312817    -0.12310
C1649       C  0.53778895  0.68762841  0.77601876     0.01340
C1650       C  0.52911419  0.63717563  0.78154271    -0.10840
C1651       C  0.99945168  0.59852487  0.00083973     0.03830
C1652       C  0.97184428  0.60921387  0.96896655    -0.10260
H1653       H  0.52145083  0.73693486  0.73900186     0.09430
H1654       H  0.54865724  0.62904388  0.80750139     0.06960
H1655       H  0.94712760  0.57952442  0.94613636     0.06800
C1656       C  0.65808514  0.97699412  0.78470527     0.03840
C1657       C  0.60949176  0.97369793  0.78275020    -0.12310
C1658       C  0.59831056  0.00014498  0.75028102     0.01340
C1659       C  0.63630095  0.52851967  0.96895196    -0.10840
C1660       C  0.68690350  0.53761994  0.97460363     0.03830
C1661       C  0.69744833  0.51259587  0.75791225    -0.10260
H1662       H  0.58016147  0.94974238  0.80591520     0.09430
H1663       H  0.62773496  0.54724350  0.94262643     0.06960
H1664       H  0.73660714  0.52163620  0.01205540     0.06800
C1665       C  0.68640026  0.64846664  0.77320386     0.03840
C1666       C  0.69593143  0.68129728  0.98785713    -0.12310
C1667       C  0.65478304  0.67870538  0.96360813     0.01340
C1668       C  0.60641115  0.63402090  0.96688935    -0.10840
C1669       C  0.59704076  0.59749461  0.99947016     0.03830
C1670       C  0.63612084  0.60776006  0.77996970    -0.10260
H1671       H  0.73506162  0.70706357  0.97858802     0.09430
H1672       H  0.57597329  0.62799679  0.94431563     0.06960
H1673       H  0.62829448  0.58173627  0.80701702     0.06800
Zn1674     Zn  0.82610682  0.72608986  0.85340274     1.49720
Zn1675     Zn  0.77330895  0.60186692  0.85667768     1.49360
Zn1676     Zn  0.89670774  0.67138448  0.85229014     1.49110
Zn1677     Zn  0.83650102  0.66997190  0.93844991     1.49480
O1678       O  0.83338515  0.66763997  0.87534128    -1.83420
O1679       O  0.76178873  0.70043677  0.81544211    -0.74050
O1680       O  0.79446515  0.55314889  0.82843852    -0.73870
O1681       O  0.93456130  0.73354608  0.81186056    -0.73380
O1682       O  0.72997728  0.61503402  0.81459265    -0.74060
O1683       O  0.88625494  0.77161553  0.81570646    -0.73660
O1684       O  0.87871183  0.60601604  0.81994187    -0.74240
O1685       O  0.89864454  0.66343635  0.95943729    -0.73630
O1686       O  0.72507148  0.56550157  0.90586872    -0.74390
O1687       O  0.94435066  0.67203421  0.90009405    -0.73780
O1688       O  0.77009625  0.61055197  0.96327802    -0.74250
O1689       O  0.84257008  0.73797033  0.96011881    -0.74160
O1690       O  0.82786571  0.77338595  0.90203910    -0.73950
C1691       C  0.72856661  0.65521717  0.80237336     0.77840
C1692       C  0.83835801  0.56207125  0.81445965     0.78330
C1693       C  0.92554019  0.77004291  0.80149124     0.77290
C1694       C  0.93797223  0.66564659  0.94076405     0.77670
C1695       C  0.72941944  0.57335540  0.94639301     0.78810
C1696       C  0.83717014  0.77393585  0.94235541     0.77860
loop_ 
_geom_bond_atom_site_label_1 
_geom_bond_atom_site_label_2 
_geom_bond_distance 
_geom_bond_site_symmetry_2 
_ccdc_geom_bond_type 
Zn1           O5   1.951       .  S
Zn1           O6   2.033       .  S
Zn1          O10   2.021       .  S
Zn1          O17   2.039       .  S
Zn2           O5   1.966       .  S
Zn2           O7   2.013       .  S
Zn2           O9   2.004       .  S
Zn2          O13   2.058       .  S
Zn3           O5   1.969       .  S
Zn3           O8   2.009       .  S
Zn3          O11   2.036       .  S
Zn3          O14   1.998       .  S
Zn4           O5   1.966       .  S
Zn4          O12   2.051       .  S
Zn4          O15   2.011       .  S
Zn4          O16   2.043       .  S
O6           C18   1.276       .  A
O7           C19   1.276       .  A
O8           C20   1.270       .  A
O9           C18   1.270       .  A
O10          C20   1.274       .  A
O11          C19   1.275       .  A
O12          C21   1.279       .  A
O13          C22   1.277       .  A
O14          C21   1.272       .  A
O15          C22   1.275       .  A
O16          C23   1.274       .  A
O17          C23   1.277       .  A
C18          C59   1.470       .  S
C19          C77   1.481       .  S
C20          C41   1.466       .  S
C21          C32   1.476       .  S
C22          C48   1.488       .  S
C23          C66   1.477       .  S
C24         C909   1.500       .  S
C24          C25   1.422   1_655  A
C24        C1407   1.418       .  A
C25          C79   1.492       .  S
C25          C26   1.424   1_545  A
C26         C598   1.501   1_565  S
C26        C1405   1.418       .  A
C27        C1216   1.494   1_554  S
C27          C28   1.421       .  A
C27        C1616   1.418       .  A
C28          C43   1.498       .  S
C28          C29   1.424       .  A
C29         C458   1.494       .  S
C29        C1614   1.418       .  A
C30         C102   1.482       .  S
C30          C35   1.399       .  A
C30         C349   1.404   1_545  A
C31         C136   1.404   1_565  A
C31         C456   1.399       .  A
C31         H460   1.070       .  S
C32          C33   1.402       .  A
C32         C455   1.399       .  A
C33         C564   1.406       .  A
C33          H37   1.084       .  S
C34         C453   1.494   1_565  S
C34          C35   1.403   1_565  A
C34         C775   1.406   1_554  A
C35          H38   1.083       .  S
H36         C455   1.070       .  S
C39         C106   1.480       .  S
C39          C44   1.400       .  A
C39         C146   1.400       .  A
C40          C41   1.391   1_556  A
C40         C357   1.400       .  A
C40          H45   1.063       .  S
C41          C42   1.395       .  A
C42          C43   1.409       .  A
C42          H46   1.084       .  S
C43         C362   1.413   1_554  A
C44         C149   1.413       .  A
C44          H47   1.083       .  S
C48          C49   1.401       .  A
C48         C901   1.405   1_455  A
C49          C50   1.404       .  A
C49          H54   1.083       .  S
C50         C981   1.494       .  S
C50        C1005   1.406   1_455  A
C51          C52   1.401       .  A
C51        C1216   1.406   1_554  A
C51          H55   1.084       .  S
C52         C103   1.478       .  S
C52         C371   1.400   1_554  A
C53         C896   1.405       .  A
C53         C158   1.400       .  A
C53         H162   1.068       .  S
H56         C371   1.068       .  S
C57         C104   1.479       .  S
C57          C62   1.401       .  A
C57         C164   1.399       .  A
C58         C375   1.399       .  A
C58         C907   1.389   1_556  A
C58         H911   1.061       .  S
C59          C60   1.399       .  A
C59         C906   1.389   1_554  A
C60        C1227   1.412   1_455  A
C60          H64   1.084       .  S
C61         C872   1.500       .  S
C61          C62   1.412       .  A
C61        C1014   1.412       .  A
C62          H65   1.083       .  S
H63         C906   1.061       .  S
C66          C67   1.399       .  A
C66         C495   1.401       .  A
C67          C68   1.410       .  A
C67          H72   1.083       .  S
C68         C768   1.501       .  S
C68         C811   1.413   1_554  A
C69          C70   1.401       .  A
C69         C598   1.413       .  A
C69          H73   1.083       .  S
C70         C105   1.474       .  S
C70         C177   1.392       .  A
C71         C490   1.401   1_545  A
C71         C388   1.392   1_554  A
C71         H392   1.065       .  S
H74         C177   1.065       .  S
C75         C101   1.472       .  S
C75          C80   1.399       .  A
C75         C394   1.399   1_554  A
C76          C77   1.401       .  A
C76         C181   1.399       .  A
C76          H81   1.070       .  S
C77          C78   1.399       .  A
C78          C79   1.404       .  A
C78          H82   1.083       .  S
C79         C186   1.405       .  A
C80         C397   1.405   1_554  A
C80          H83   1.084       .  S
Zn84         O88   1.971       .  S
Zn84         O89   2.039       .  S
Zn84         O93   2.004       .  S
Zn84        O100   2.042       .  S
Zn85         O88   1.971       .  S
Zn85         O90   2.038       .  S
Zn85         O92   1.996       .  S
Zn85         O96   2.008       .  S
Zn86         O88   1.967       .  S
Zn86         O91   2.049       .  S
Zn86         O94   2.007       .  S
Zn86         O97   2.036       .  S
Zn87         O88   1.955       .  S
Zn87         O95   2.052       .  S
Zn87         O98   2.043       .  S
Zn87         O99   2.049       .  S
O89         C101   1.277       .  A
O90         C102   1.274       .  A
O91         C103   1.278       .  A
O92         C101   1.271       .  A
O93         C103   1.272       .  A
O94         C102   1.274       .  A
O95         C104   1.279       .  A
O96         C105   1.270       .  A
O97         C104   1.274       .  A
O98         C105   1.277       .  A
O99         C106   1.278       .  A
O100        C106   1.275       .  A
Zn107       O111   1.951       .  S
Zn107       O112   2.033       .  S
Zn107       O116   2.021       .  S
Zn107       O123   2.039       .  S
Zn108       O111   1.966       .  S
Zn108       O113   2.013       .  S
Zn108       O115   2.004       .  S
Zn108       O119   2.058       .  S
Zn109       O111   1.970       .  S
Zn109       O114   2.009       .  S
Zn109       O117   2.036       .  S
Zn109       O120   1.998       .  S
Zn110       O111   1.966       .  S
Zn110       O118   2.051       .  S
Zn110       O121   2.011       .  S
Zn110       O122   2.043       .  S
O112        C124   1.276       .  A
O113        C125   1.276       .  A
O114        C126   1.270       .  A
O115        C124   1.270       .  A
O116        C126   1.274       .  A
O117        C125   1.275       .  A
O118        C127   1.279       .  A
O119        C128   1.277       .  A
O120        C127   1.272       .  A
O121        C128   1.275       .  A
O122        C129   1.274       .  A
O123        C129   1.277       .  A
C124        C165   1.470       .  S
C125        C183   1.481       .  S
C126        C147   1.466       .  S
C127        C138   1.476       .  S
C128        C154   1.488       .  S
C129        C172   1.477       .  S
C130       C1015   1.500       .  S
C130        C131   1.422   1_655  A
C130       C1513   1.418       .  A
C131        C185   1.492       .  S
C131        C132   1.424   1_545  A
C132        C704   1.501   1_565  S
C132       C1511   1.418       .  A
C133        C898   1.494       .  S
C133       C1298   1.418       .  A
C133        C134   1.421       .  A
C134        C149   1.498       .  S
C134        C135   1.424       .  A
C135        C564   1.494       .  S
C135       C1296   1.418       .  A
C136        C208   1.482       .  S
C136        C141   1.399       .  A
C137        C242   1.404   1_565  A
C137        C562   1.399       .  A
C137        H566   1.070       .  S
C138        C561   1.399       .  A
C138        C139   1.402       .  A
C139        C670   1.406       .  A
C139        H143   1.084       .  S
C140        C559   1.494   1_565  S
C140        C457   1.406       .  A
C140        C141   1.403   1_565  A
C141        H144   1.083       .  S
H142        C561   1.070       .  S
C145        C212   1.479       .  S
C145        C252   1.400       .  A
C145        C150   1.400       .  A
C146        C147   1.391       .  A
C146        H151   1.063       .  S
C147        C148   1.395       .  A
C148        C149   1.409       .  A
C148        H152   1.084       .  S
C150        C255   1.413       .  A
C150        H153   1.083       .  S
C154        C155   1.401       .  A
C154       C1007   1.405   1_455  A
C155        C156   1.404       .  A
C155        H160   1.083       .  S
C156       C1087   1.494       .  S
C156       C1111   1.406   1_455  A
C157        C898   1.406       .  A
C157        C158   1.401       .  A
C157        H161   1.084       .  S
C158        C209   1.478       .  S
C159       C1002   1.405       .  A
C159        C264   1.400       .  A
C159        H268   1.068       .  S
C163        C210   1.479       .  S
C163        C270   1.399       .  A
C163        C168   1.401       .  A
C164       C1013   1.389       .  A
C164       H1017   1.061       .  S
C165       C1012   1.389       .  A
C165        C166   1.399       .  A
C166        C909   1.412   1_455  A
C166        H170   1.084       .  S
C167        C978   1.500       .  S
C167       C1120   1.412       .  A
C167        C168   1.412       .  A
C168        H171   1.083       .  S
H169       C1012   1.061       .  S
C172        C173   1.399       .  A
C172        C601   1.401       .  A
C173        C174   1.410       .  A
C173        H178   1.083       .  S
C174        C450   1.501       .  S
C174        C493   1.413       .  A
C175        C704   1.413       .  A
C175        C176   1.401       .  A
C175        H179   1.083       .  S
C176        C211   1.474       .  S
C176        C283   1.392       .  A
C177        C596   1.401   1_545  A
H180        C283   1.065       .  S
C181        C207   1.472       .  S
C181        C186   1.399       .  A
C182        C287   1.399       .  A
C182        C183   1.401       .  A
C182        H187   1.070       .  S
C183        C184   1.399       .  A
C184        C185   1.404       .  A
C184        H188   1.083       .  S
C185        C292   1.405       .  A
C186        H189   1.084       .  S
Zn190       O194   1.971       .  S
Zn190       O195   2.039       .  S
Zn190       O199   2.004       .  S
Zn190       O206   2.042       .  S
Zn191       O194   1.971       .  S
Zn191       O196   2.038       .  S
Zn191       O198   1.996       .  S
Zn191       O202   2.008       .  S
Zn192       O194   1.967       .  S
Zn192       O197   2.049       .  S
Zn192       O200   2.007       .  S
Zn192       O203   2.036       .  S
Zn193       O194   1.955       .  S
Zn193       O201   2.052       .  S
Zn193       O204   2.043       .  S
Zn193       O205   2.049       .  S
O195        C207   1.277       .  A
O196        C208   1.274       .  A
O197        C209   1.278       .  A
O198        C207   1.271       .  A
O199        C209   1.272       .  A
O200        C208   1.274       .  A
O201        C210   1.279       .  A
O202        C211   1.270       .  A
O203        C210   1.274       .  A
O204        C211   1.277       .  A
O205        C212   1.278       .  A
O206        C212   1.275       .  A
Zn213       O217   1.951       .  S
Zn213       O218   2.033       .  S
Zn213       O222   2.021       .  S
Zn213       O229   2.039       .  S
Zn214       O217   1.966       .  S
Zn214       O219   2.013       .  S
Zn214       O221   2.004       .  S
Zn214       O225   2.058       .  S
Zn215       O217   1.970       .  S
Zn215       O220   2.009       .  S
Zn215       O223   2.036       .  S
Zn215       O226   1.998       .  S
Zn216       O217   1.966       .  S
Zn216       O224   2.051       .  S
Zn216       O227   2.010       .  S
Zn216       O228   2.043       .  S
O218        C230   1.276       .  A
O219        C231   1.276       .  A
O220        C232   1.270       .  A
O221        C230   1.270       .  A
O222        C232   1.274       .  A
O223        C231   1.275       .  A
O224        C233   1.279       .  A
O225        C234   1.277       .  A
O226        C233   1.272       .  A
O227        C234   1.275       .  A
O228        C235   1.274       .  A
O229        C235   1.277       .  A
C230        C271   1.470       .  S
C231        C289   1.481       .  S
C232        C253   1.466       .  S
C233        C244   1.476       .  S
C234        C260   1.488       .  S
C235        C278   1.477       .  S
C236       C1121   1.500       .  S
C236        C237   1.422   1_655  A
C236       C1619   1.418       .  A
C237        C291   1.492       .  S
C237        C238   1.424   1_545  A
C238        C810   1.501   1_565  S
C238       C1617   1.418       .  A
C239       C1004   1.494       .  S
C239       C1404   1.418       .  A
C239        C240   1.421       .  A
C240        C255   1.498       .  S
C240        C241   1.424       .  A
C241        C670   1.494       .  S
C241       C1402   1.418       .  A
C242        C314   1.482       .  S
C242        C247   1.399       .  A
C243        C348   1.404   1_565  A
C243        C668   1.399       .  A
C243        H672   1.070       .  S
C244        C667   1.399       .  A
C244        C245   1.402       .  A
C245        C776   1.406       .  A
C245        H249   1.084       .  S
C246        C665   1.494   1_565  S
C246        C563   1.406       .  A
C246        C247   1.403   1_565  A
C247        H250   1.083       .  S
H248        C667   1.070       .  S
C251        C318   1.479       .  S
C251        C358   1.400       .  A
C251        C256   1.400       .  A
C252        C253   1.391       .  A
C252        H257   1.063       .  S
C253        C254   1.395       .  A
C254        C255   1.409       .  A
C254        H258   1.084       .  S
C256        C361   1.413       .  A
C256        H259   1.083       .  S
C260        C261   1.401       .  A
C260       C1113   1.405   1_455  A
C261        C262   1.404       .  A
C261        H266   1.083       .  S
C262       C1193   1.494       .  S
C262       C1217   1.406   1_455  A
C263       C1004   1.406       .  A
C263        C264   1.401       .  A
C263        H267   1.084       .  S
C264        C315   1.478       .  S
C265       C1108   1.405       .  A
C265        C370   1.400       .  A
C265        H374   1.068       .  S
C269        C316   1.479       .  S
C269        C376   1.399       .  A
C269        C274   1.401       .  A
C270       C1119   1.389       .  A
C270       H1123   1.061       .  S
C271       C1118   1.389       .  A
C271        C272   1.399       .  A
C272       C1015   1.412   1_455  A
C272        H276   1.084       .  S
C273       C1084   1.500       .  S
C273       C1226   1.412       .  A
C273        C274   1.412       .  A
C274        H277   1.083       .  S
H275       C1118   1.061       .  S
C278        C279   1.399       .  A
C278        C707   1.401       .  A
C279        C280   1.410       .  A
C279        H284   1.083       .  S
C280        C556   1.501       .  S
C280        C599   1.413       .  A
C281        C810   1.413       .  A
C281        C282   1.401       .  A
C281        H285   1.083       .  S
C282        C317   1.474       .  S
C282        C389   1.392       .  A
C283        C702   1.401   1_545  A
H286        C389   1.065       .  S
C287        C313   1.472       .  S
C287        C292   1.399       .  A
C288        C393   1.399       .  A
C288        C289   1.401       .  A
C288        H293   1.070       .  S
C289        C290   1.399       .  A
C290        C291   1.404       .  A
C290        H294   1.083       .  S
C291        C398   1.405       .  A
C292        H295   1.084       .  S
Zn296       O300   1.971       .  S
Zn296       O301   2.039       .  S
Zn296       O305   2.004       .  S
Zn296       O312   2.042       .  S
Zn297       O300   1.971       .  S
Zn297       O302   2.038       .  S
Zn297       O304   1.996       .  S
Zn297       O308   2.008       .  S
Zn298       O300   1.967       .  S
Zn298       O303   2.049       .  S
Zn298       O306   2.007       .  S
Zn298       O309   2.036       .  S
Zn299       O300   1.955       .  S
Zn299       O307   2.052       .  S
Zn299       O310   2.043       .  S
Zn299       O311   2.049       .  S
O301        C313   1.277       .  A
O302        C314   1.274       .  A
O303        C315   1.278       .  A
O304        C313   1.271       .  A
O305        C315   1.272       .  A
O306        C314   1.274       .  A
O307        C316   1.279       .  A
O308        C317   1.270       .  A
O309        C316   1.274       .  A
O310        C317   1.277       .  A
O311        C318   1.278       .  A
O312        C318   1.275       .  A
Zn319       O323   1.951       .  S
Zn319       O324   2.033       .  S
Zn319       O328   2.021       .  S
Zn319       O335   2.039       .  S
Zn320       O323   1.966       .  S
Zn320       O325   2.013       .  S
Zn320       O327   2.004       .  S
Zn320       O331   2.058       .  S
Zn321       O323   1.969       .  S
Zn321       O326   2.008       .  S
Zn321       O329   2.036       .  S
Zn321       O332   1.998       .  S
Zn322       O323   1.966       .  S
Zn322       O330   2.051       .  S
Zn322       O333   2.010       .  S
Zn322       O334   2.043       .  S
O324        C336   1.276       .  A
O325        C337   1.276       .  A
O326        C338   1.270       .  A
O327        C336   1.270       .  A
O328        C338   1.274       .  A
O329        C337   1.275       .  A
O330        C339   1.279       .  A
O331        C340   1.277       .  A
O332        C339   1.272       .  A
O333        C340   1.275       .  A
O334        C341   1.274       .  A
O335        C341   1.277       .  A
C336        C377   1.470       .  S
C337        C395   1.481       .  S
C338        C359   1.466       .  S
C339        C350   1.476       .  S
C340        C366   1.488       .  S
C341        C384   1.477       .  S
C342       C1227   1.500       .  S
C342        C343   1.422   1_655  A
C342       C1301   1.418       .  A
C343        C397   1.492   1_554  S
C343        C344   1.424   1_545  A
C344        C492   1.501   1_565  S
C344       C1299   1.418       .  A
C345       C1110   1.494       .  S
C345       C1510   1.418       .  A
C345        C346   1.421       .  A
C346        C361   1.498       .  S
C346        C347   1.424       .  A
C347        C776   1.494       .  S
C347       C1508   1.418       .  A
C348        C420   1.482       .  S
C348        C353   1.399       .  A
C349        C774   1.399   1_554  A
C349        H778   1.070       .  S
C350        C773   1.399   1_556  A
C350        C351   1.402       .  A
C351        C458   1.406   1_556  A
C351        H355   1.084       .  S
C352        C771   1.494   1_565  S
C352        C669   1.406       .  A
C352        C353   1.402   1_565  A
C353        H356   1.083       .  S
H354        C773   1.070       .  S
C357        C424   1.480       .  S
C357        C362   1.400       .  A
C358        C359   1.391       .  A
C358        H363   1.063       .  S
C359        C360   1.395       .  A
C360        C361   1.409       .  A
C360        H364   1.084       .  S
C362        H365   1.083       .  S
C366        C367   1.401       .  A
C366       C1219   1.405   1_455  A
C367        C368   1.404       .  A
C367        H372   1.083       .  S
C368        C875   1.494   1_556  S
C368        C899   1.406   1_456  A
C369       C1110   1.406       .  A
C369        C370   1.401       .  A
C369        H373   1.084       .  S
C370        C421   1.478       .  S
C371       C1214   1.405       .  A
C375        C422   1.479       .  S
C375        C380   1.401       .  A
C376       C1225   1.389       .  A
C376       H1229   1.061       .  S
C377       C1224   1.389       .  A
C377        C378   1.399       .  A
C378       C1121   1.412   1_455  A
C378        H382   1.084       .  S
C379       C1190   1.500       .  S
C379        C908   1.412       .  A
C379        C380   1.412   1_554  A
C380        H383   1.083       .  S
H381       C1224   1.061       .  S
C384        C385   1.399       .  A
C384        C813   1.401       .  A
C385        C386   1.410       .  A
C385        H390   1.083       .  S
C386        C662   1.501       .  S
C386        C705   1.413       .  A
C387        C492   1.413   1_556  A
C387        C388   1.401       .  A
C387        H391   1.083       .  S
C388        C423   1.474       .  S
C389        C808   1.401   1_545  A
C393        C419   1.472       .  S
C393        C398   1.399       .  A
C394        C395   1.401       .  A
C394        H399   1.070       .  S
C395        C396   1.399       .  A
C396        C397   1.404       .  A
C396        H400   1.083       .  S
C398        H401   1.084       .  S
Zn402       O406   1.971       .  S
Zn402       O407   2.039       .  S
Zn402       O411   2.004       .  S
Zn402       O418   2.042       .  S
Zn403       O406   1.971       .  S
Zn403       O408   2.038       .  S
Zn403       O410   1.996       .  S
Zn403       O414   2.008       .  S
Zn404       O406   1.967       .  S
Zn404       O409   2.049       .  S
Zn404       O412   2.007       .  S
Zn404       O415   2.036       .  S
Zn405       O406   1.955       .  S
Zn405       O413   2.052       .  S
Zn405       O416   2.043       .  S
Zn405       O417   2.049       .  S
O407        C419   1.277       .  A
O408        C420   1.274       .  A
O409        C421   1.278       .  A
O410        C419   1.271       .  A
O411        C421   1.272       .  A
O412        C420   1.274       .  A
O413        C422   1.279       .  A
O414        C423   1.270       .  A
O415        C422   1.274       .  A
O416        C423   1.277       .  A
O417        C424   1.278       .  A
O418        C424   1.275       .  A
Zn425       O429   1.951       .  S
Zn425       O430   2.033       .  S
Zn425       O434   2.021       .  S
Zn425       O441   2.039       .  S
Zn426       O429   1.966       .  S
Zn426       O431   2.012       .  S
Zn426       O433   2.004       .  S
Zn426       O437   2.058       .  S
Zn427       O429   1.970       .  S
Zn427       O432   2.009       .  S
Zn427       O435   2.036       .  S
Zn427       O438   1.998       .  S
Zn428       O429   1.966       .  S
Zn428       O436   2.051       .  S
Zn428       O439   2.011       .  S
Zn428       O440   2.043       .  S
O430        C442   1.276       .  A
O431        C443   1.275       .  A
O432        C444   1.270       .  A
O433        C442   1.270       .  A
O434        C444   1.274       .  A
O435        C443   1.275       .  A
O436        C445   1.279       .  A
O437        C446   1.277       .  A
O438        C445   1.272       .  A
O439        C446   1.275       .  A
O440        C447   1.274       .  A
O441        C447   1.277       .  A
C442        C483   1.470       .  S
C443        C501   1.481       .  S
C444        C465   1.466       .  S
C445        C456   1.476       .  S
C446        C472   1.488       .  S
C447        C490   1.477       .  S
C448       C1333   1.500       .  S
C448        C449   1.422   1_655  A
C448        C983   1.418       .  A
C449        C503   1.492       .  S
C449        C450   1.424       .  A
C450        C981   1.418       .  A
C451       C1640   1.494   1_554  S
C451       C1192   1.418       .  A
C451        C452   1.421       .  A
C452        C467   1.498       .  S
C452        C453   1.424   1_565  A
C453       C1190   1.418       .  A
C454        C526   1.482       .  S
C454        C773   1.404       .  A
C454        C459   1.399       .  A
C455        C560   1.404       .  A
C456        C457   1.402       .  A
C457        H461   1.084       .  S
C458        C459   1.403       .  A
C459        H462   1.083       .  S
C463        C530   1.479       .  S
C463        C570   1.399       .  A
C463        C468   1.400       .  A
C464        C781   1.399       .  A
C464        C465   1.391   1_556  A
C464        H469   1.064       .  S
C465        C466   1.396       .  A
C466        C467   1.409       .  A
C466        H470   1.084       .  S
C467        C786   1.413   1_554  A
C468        C573   1.413       .  A
C468        H471   1.083       .  S
C472        C473   1.401       .  A
C472       C1325   1.405   1_455  A
C473        C474   1.404       .  A
C473        H478   1.083       .  S
C474       C1405   1.494       .  S
C474       C1429   1.406   1_455  A
C475       C1640   1.406   1_554  A
C475        C476   1.401       .  A
C475        H479   1.084       .  S
C476        C527   1.478       .  S
C476        C795   1.401   1_554  A
C477       C1320   1.405       .  A
C477        C582   1.401       .  A
C477        H586   1.068       .  S
H480        C795   1.068       .  S
C481        C528   1.479       .  S
C481        C588   1.399       .  A
C481        C486   1.401       .  A
C482        C799   1.399       .  A
C482       C1331   1.389   1_556  A
C482       H1335   1.061       .  S
C483       C1330   1.389   1_554  A
C483        C484   1.399       .  A
C484       C1651   1.412   1_455  A
C484        H488   1.084       .  S
C485       C1296   1.500       .  S
C485       C1438   1.412       .  A
C485        C486   1.412       .  A
C486        H489   1.083       .  S
H487       C1330   1.061       .  S
C490        C491   1.399       .  A
C491        C492   1.410   1_565  A
C491        H496   1.083       .  S
C493        C494   1.401       .  A
C493        H497   1.083       .  S
C494        C529   1.474       .  S
C494        C601   1.392       .  A
C495        C812   1.392   1_554  A
C495        H816   1.065       .  S
H498        C601   1.065       .  S
C499        C525   1.472       .  S
C499        C818   1.399   1_554  A
C499        C504   1.399       .  A
C500        C605   1.399       .  A
C500        C501   1.401       .  A
C500        H505   1.070       .  S
C501        C502   1.399       .  A
C502        C503   1.404       .  A
C502        H506   1.083       .  S
C503        C610   1.405       .  A
C504        C821   1.405   1_554  A
C504        H507   1.084       .  S
Zn508       O512   1.971       .  S
Zn508       O513   2.039       .  S
Zn508       O517   2.005       .  S
Zn508       O524   2.042       .  S
Zn509       O512   1.971       .  S
Zn509       O514   2.038       .  S
Zn509       O516   1.996       .  S
Zn509       O520   2.008       .  S
Zn510       O512   1.967       .  S
Zn510       O515   2.049       .  S
Zn510       O518   2.007       .  S
Zn510       O521   2.036       .  S
Zn511       O512   1.955       .  S
Zn511       O519   2.052       .  S
Zn511       O522   2.043       .  S
Zn511       O523   2.049       .  S
O513        C525   1.277       .  A
O514        C526   1.274       .  A
O515        C527   1.278       .  A
O516        C525   1.271       .  A
O517        C527   1.272       .  A
O518        C526   1.274       .  A
O519        C528   1.279       .  A
O520        C529   1.270       .  A
O521        C528   1.274       .  A
O522        C529   1.277       .  A
O523        C530   1.278       .  A
O524        C530   1.275       .  A
Zn531       O535   1.951       .  S
Zn531       O536   2.033       .  S
Zn531       O540   2.021       .  S
Zn531       O547   2.039       .  S
Zn532       O535   1.966       .  S
Zn532       O537   2.012       .  S
Zn532       O539   2.004       .  S
Zn532       O543   2.058       .  S
Zn533       O535   1.969       .  S
Zn533       O538   2.009       .  S
Zn533       O541   2.036       .  S
Zn533       O544   1.998       .  S
Zn534       O535   1.966       .  S
Zn534       O542   2.051       .  S
Zn534       O545   2.011       .  S
Zn534       O546   2.043       .  S
O536        C548   1.276       .  A
O537        C549   1.276       .  A
O538        C550   1.270       .  A
O539        C548   1.270       .  A
O540        C550   1.274       .  A
O541        C549   1.275       .  A
O542        C551   1.279       .  A
O543        C552   1.277       .  A
O544        C551   1.272       .  A
O545        C552   1.275       .  A
O546        C553   1.274       .  A
O547        C553   1.277       .  A
C548        C589   1.470       .  S
C549        C607   1.481       .  S
C550        C571   1.466       .  S
C551        C562   1.476       .  S
C552        C578   1.488       .  S
C553        C596   1.477       .  S
C554       C1439   1.500       .  S
C554        C555   1.422   1_655  A
C554       C1089   1.418       .  A
C555        C609   1.492       .  S
C555        C556   1.424       .  A
C556       C1087   1.418       .  A
C557       C1322   1.494       .  S
C557        C874   1.418       .  A
C557        C558   1.421       .  A
C558        C573   1.498       .  S
C558        C559   1.424   1_565  A
C559        C872   1.418       .  A
C560        C632   1.482       .  S
C560        C565   1.399       .  A
C561        C666   1.404       .  A
C562        C563   1.402       .  A
C563        H567   1.084       .  S
C564        C565   1.403       .  A
C565        H568   1.083       .  S
C569        C636   1.479       .  S
C569        C676   1.400       .  A
C569        C574   1.400       .  A
C570        C571   1.391       .  A
C570        H575   1.064       .  S
C571        C572   1.396       .  A
C572        C573   1.409       .  A
C572        H576   1.084       .  S
C574        C679   1.413       .  A
C574        H577   1.083       .  S
C578        C579   1.401       .  A
C578       C1431   1.405   1_455  A
C579        C580   1.404       .  A
C579        H584   1.083       .  S
C580       C1511   1.494       .  S
C580       C1535   1.406   1_455  A
C581       C1322   1.406       .  A
C581        C582   1.401       .  A
C581        H585   1.084       .  S
C582        C633   1.478       .  S
C583       C1426   1.405       .  A
C583        C688   1.401       .  A
C583        H692   1.068       .  S
C587        C634   1.479       .  S
C587        C694   1.399       .  A
C587        C592   1.401       .  A
C588       C1437   1.389       .  A
C588       H1441   1.061       .  S
C589       C1436   1.389       .  A
C589        C590   1.399       .  A
C590       C1333   1.412   1_455  A
C590        H594   1.084       .  S
C591       C1402   1.500       .  S
C591       C1544   1.412       .  A
C591        C592   1.412       .  A
C592        H595   1.083       .  S
H593       C1436   1.061       .  S
C596        C597   1.399       .  A
C597        C598   1.410   1_565  A
C597        H602   1.083       .  S
C599        C600   1.401       .  A
C599        H603   1.083       .  S
C600        C635   1.474       .  S
C600        C707   1.392       .  A
H604        C707   1.065       .  S
C605        C631   1.472       .  S
C605        C610   1.399       .  A
C606        C711   1.399       .  A
C606        C607   1.401       .  A
C606        H611   1.069       .  S
C607        C608   1.399       .  A
C608        C609   1.404       .  A
C608        H612   1.083       .  S
C609        C716   1.405       .  A
C610        H613   1.084       .  S
Zn614       O618   1.971       .  S
Zn614       O619   2.039       .  S
Zn614       O623   2.005       .  S
Zn614       O630   2.042       .  S
Zn615       O618   1.971       .  S
Zn615       O620   2.038       .  S
Zn615       O622   1.996       .  S
Zn615       O626   2.008       .  S
Zn616       O618   1.967       .  S
Zn616       O621   2.049       .  S
Zn616       O624   2.007       .  S
Zn616       O627   2.036       .  S
Zn617       O618   1.955       .  S
Zn617       O625   2.052       .  S
Zn617       O628   2.043       .  S
Zn617       O629   2.049       .  S
O619        C631   1.277       .  A
O620        C632   1.274       .  A
O621        C633   1.278       .  A
O622        C631   1.271       .  A
O623        C633   1.272       .  A
O624        C632   1.274       .  A
O625        C634   1.279       .  A
O626        C635   1.270       .  A
O627        C634   1.274       .  A
O628        C635   1.277       .  A
O629        C636   1.278       .  A
O630        C636   1.275       .  A
Zn637       O641   1.951       .  S
Zn637       O642   2.033       .  S
Zn637       O646   2.021       .  S
Zn637       O653   2.039       .  S
Zn638       O641   1.966       .  S
Zn638       O643   2.012       .  S
Zn638       O645   2.004       .  S
Zn638       O649   2.058       .  S
Zn639       O641   1.970       .  S
Zn639       O644   2.009       .  S
Zn639       O647   2.036       .  S
Zn639       O650   1.998       .  S
Zn640       O641   1.966       .  S
Zn640       O648   2.051       .  S
Zn640       O651   2.011       .  S
Zn640       O652   2.043       .  S
O642        C654   1.276       .  A
O643        C655   1.275       .  A
O644        C656   1.270       .  A
O645        C654   1.270       .  A
O646        C656   1.274       .  A
O647        C655   1.275       .  A
O648        C657   1.279       .  A
O649        C658   1.277       .  A
O650        C657   1.272       .  A
O651        C658   1.275       .  A
O652        C659   1.274       .  A
O653        C659   1.277       .  A
C654        C695   1.470       .  S
C655        C713   1.481       .  S
C656        C677   1.466       .  S
C657        C668   1.476       .  S
C658        C684   1.488       .  S
C659        C702   1.477       .  S
C660       C1545   1.500       .  S
C660        C661   1.422   1_655  A
C660       C1195   1.418       .  A
C661        C715   1.492       .  S
C661        C662   1.424       .  A
C662       C1193   1.418       .  A
C663       C1428   1.494       .  S
C663        C980   1.418       .  A
C663        C664   1.421       .  A
C664        C679   1.498       .  S
C664        C665   1.424   1_565  A
C665        C978   1.418       .  A
C666        C738   1.482       .  S
C666        C671   1.399       .  A
C667        C772   1.404       .  A
C668        C669   1.402       .  A
C669        H673   1.084       .  S
C670        C671   1.403       .  A
C671        H674   1.083       .  S
C675        C742   1.479       .  S
C675        C782   1.399       .  A
C675        C680   1.401       .  A
C676        C677   1.391       .  A
C676        H681   1.063       .  S
C677        C678   1.395       .  A
C678        C679   1.409       .  A
C678        H682   1.084       .  S
C680        C785   1.413       .  A
C680        H683   1.083       .  S
C684        C685   1.401       .  A
C684       C1537   1.405   1_455  A
C685        C686   1.404       .  A
C685        H690   1.083       .  S
C686       C1617   1.494       .  S
C686       C1641   1.406   1_455  A
C687       C1428   1.406       .  A
C687        C688   1.401       .  A
C687        H691   1.084       .  S
C688        C739   1.478       .  S
C689       C1532   1.405       .  A
C689        C794   1.400       .  A
C689        H798   1.068       .  S
C693        C740   1.479       .  S
C693        C800   1.399       .  A
C693        C698   1.401       .  A
C694       C1543   1.389       .  A
C694       H1547   1.061       .  S
C695       C1542   1.389       .  A
C695        C696   1.399       .  A
C696       C1439   1.412   1_455  A
C696        H700   1.084       .  S
C697       C1508   1.500       .  S
C697       C1650   1.412       .  A
C697        C698   1.412       .  A
C698        H701   1.083       .  S
H699       C1542   1.061       .  S
C702        C703   1.399       .  A
C703        C704   1.410   1_565  A
C703        H708   1.083       .  S
C705        C706   1.401       .  A
C705        H709   1.083       .  S
C706        C741   1.474       .  S
C706        C813   1.392       .  A
H710        C813   1.065       .  S
C711        C737   1.472       .  S
C711        C716   1.399       .  A
C712        C817   1.399       .  A
C712        C713   1.401       .  A
C712        H717   1.070       .  S
C713        C714   1.399       .  A
C714        C715   1.404       .  A
C714        H718   1.083       .  S
C715        C822   1.405       .  A
C716        H719   1.084       .  S
Zn720       O724   1.971       .  S
Zn720       O725   2.039       .  S
Zn720       O729   2.005       .  S
Zn720       O736   2.042       .  S
Zn721       O724   1.971       .  S
Zn721       O726   2.038       .  S
Zn721       O728   1.996       .  S
Zn721       O732   2.008       .  S
Zn722       O724   1.967       .  S
Zn722       O727   2.049       .  S
Zn722       O730   2.007       .  S
Zn722       O733   2.036       .  S
Zn723       O724   1.955       .  S
Zn723       O731   2.052       .  S
Zn723       O734   2.043       .  S
Zn723       O735   2.049       .  S
O725        C737   1.277       .  A
O726        C738   1.274       .  A
O727        C739   1.278       .  A
O728        C737   1.271       .  A
O729        C739   1.272       .  A
O730        C738   1.274       .  A
O731        C740   1.279       .  A
O732        C741   1.270       .  A
O733        C740   1.274       .  A
O734        C741   1.277       .  A
O735        C742   1.278       .  A
O736        C742   1.275       .  A
Zn743       O747   1.951       .  S
Zn743       O748   2.033       .  S
Zn743       O752   2.021       .  S
Zn743       O759   2.039       .  S
Zn744       O747   1.966       .  S
Zn744       O749   2.012       .  S
Zn744       O751   2.004       .  S
Zn744       O755   2.058       .  S
Zn745       O747   1.970       .  S
Zn745       O750   2.009       .  S
Zn745       O753   2.036       .  S
Zn745       O756   1.998       .  S
Zn746       O747   1.966       .  S
Zn746       O754   2.051       .  S
Zn746       O757   2.011       .  S
Zn746       O758   2.043       .  S
O748        C760   1.276       .  A
O749        C761   1.275       .  A
O750        C762   1.270       .  A
O751        C760   1.270       .  A
O752        C762   1.274       .  A
O753        C761   1.275       .  A
O754        C763   1.279       .  A
O755        C764   1.277       .  A
O756        C763   1.272       .  A
O757        C764   1.275       .  A
O758        C765   1.274       .  A
O759        C765   1.277       .  A
C760        C801   1.470       .  S
C761        C819   1.481       .  S
C762        C783   1.466       .  S
C763        C774   1.476       .  S
C764        C790   1.488       .  S
C765        C808   1.477       .  S
C766       C1651   1.500       .  S
C766        C767   1.422   1_655  A
C766        C877   1.418       .  A
C767        C821   1.492   1_554  S
C767        C768   1.424       .  A
C768        C875   1.418       .  A
C769       C1534   1.494       .  S
C769       C1086   1.418       .  A
C769        C770   1.421       .  A
C770        C785   1.498       .  S
C770        C771   1.424   1_565  A
C771       C1084   1.418       .  A
C772        C844   1.482       .  S
C772        C777   1.399       .  A
C774        C775   1.402       .  A
C775        H779   1.084       .  S
C776        C777   1.403       .  A
C777        H780   1.083       .  S
C781        C848   1.479       .  S
C781        C786   1.401       .  A
C782        C783   1.391       .  A
C782        H787   1.064       .  S
C783        C784   1.396       .  A
C784        C785   1.409       .  A
C784        H788   1.084       .  S
C786        H789   1.083       .  S
C790        C791   1.401       .  A
C790       C1643   1.405   1_455  A
C791        C792   1.404       .  A
C791        H796   1.083       .  S
C792       C1299   1.494   1_556  S
C792       C1323   1.406   1_456  A
C793       C1534   1.406       .  A
C793        C794   1.401       .  A
C793        H797   1.084       .  S
C794        C845   1.478       .  S
C795       C1638   1.405       .  A
C799        C846   1.479       .  S
C799        C804   1.401       .  A
C800       C1649   1.389       .  A
C800       H1653   1.061       .  S
C801       C1648   1.389       .  A
C801        C802   1.399       .  A
C802       C1545   1.412   1_455  A
C802        H806   1.084       .  S
C803       C1614   1.500       .  S
C803       C1332   1.412       .  A
C803        C804   1.412   1_554  A
C804        H807   1.083       .  S
H805       C1648   1.061       .  S
C808        C809   1.399       .  A
C809        C810   1.410   1_565  A
C809        H814   1.083       .  S
C811        C812   1.401       .  A
C811        H815   1.083       .  S
C812        C847   1.474       .  S
C817        C843   1.472       .  S
C817        C822   1.399       .  A
C818        C819   1.401       .  A
C818        H823   1.070       .  S
C819        C820   1.399       .  A
C820        C821   1.404       .  A
C820        H824   1.083       .  S
C822        H825   1.084       .  S
Zn826       O830   1.971       .  S
Zn826       O831   2.039       .  S
Zn826       O835   2.004       .  S
Zn826       O842   2.042       .  S
Zn827       O830   1.971       .  S
Zn827       O832   2.038       .  S
Zn827       O834   1.996       .  S
Zn827       O838   2.008       .  S
Zn828       O830   1.967       .  S
Zn828       O833   2.049       .  S
Zn828       O836   2.007       .  S
Zn828       O839   2.036       .  S
Zn829       O830   1.955       .  S
Zn829       O837   2.052       .  S
Zn829       O840   2.043       .  S
Zn829       O841   2.049       .  S
O831        C843   1.277       .  A
O832        C844   1.274       .  A
O833        C845   1.278       .  A
O834        C843   1.271       .  A
O835        C845   1.272       .  A
O836        C844   1.274       .  A
O837        C846   1.279       .  A
O838        C847   1.270       .  A
O839        C846   1.274       .  A
O840        C847   1.277       .  A
O841        C848   1.278       .  A
O842        C848   1.275       .  A
Zn849       O853   1.951       .  S
Zn849       O854   2.033       .  S
Zn849       O858   2.021       .  S
Zn849       O865   2.039       .  S
Zn850       O853   1.966       .  S
Zn850       O855   2.013       .  S
Zn850       O857   2.004       .  S
Zn850       O861   2.058       .  S
Zn851       O853   1.969       .  S
Zn851       O856   2.008       .  S
Zn851       O859   2.036       .  S
Zn851       O862   1.998       .  S
Zn852       O853   1.966       .  S
Zn852       O860   2.051       .  S
Zn852       O863   2.011       .  S
Zn852       O864   2.043       .  S
O854        C866   1.276       .  A
O855        C867   1.276       .  A
O856        C868   1.270       .  A
O857        C866   1.270       .  A
O858        C868   1.274       .  A
O859        C867   1.275       .  A
O860        C869   1.279       .  A
O861        C870   1.277       .  A
O862        C869   1.272       .  A
O863        C870   1.275       .  A
O864        C871   1.274       .  A
O865        C871   1.277       .  A
C866        C907   1.470       .  S
C867        C925   1.481       .  S
C868        C889   1.466       .  S
C869        C880   1.476       .  S
C870        C896   1.488       .  S
C871        C914   1.477       .  S
C872        C873   1.422       .  A
C873        C927   1.492       .  S
C873        C874   1.424   1_545  A
C874       C1446   1.501   1_565  S
C875        C876   1.421   1_455  A
C876        C891   1.498       .  S
C876        C877   1.424       .  A
C877       C1306   1.494       .  S
C878        C950   1.482       .  S
C878       C1197   1.404   1_545  A
C878        C883   1.399       .  A
C879        C984   1.404   1_565  A
C879       C1304   1.399       .  A
C879       H1308   1.070       .  S
C880       C1303   1.399       .  A
C880        C881   1.402       .  A
C881       C1412   1.406       .  A
C881        H885   1.084       .  S
C882       C1301   1.494   1_565  S
C882       C1623   1.406   1_554  A
C882        C883   1.403   1_565  A
C883        H886   1.083       .  S
H884       C1303   1.070       .  S
C887        C954   1.480       .  S
C887        C994   1.400       .  A
C887        C892   1.400       .  A
C888       C1205   1.400       .  A
C888        C889   1.391   1_556  A
C888        H893   1.063       .  S
C889        C890   1.395       .  A
C890        C891   1.409       .  A
C890        H894   1.084       .  S
C891       C1210   1.413   1_554  A
C892        C997   1.413       .  A
C892        H895   1.083       .  S
C896        C897   1.401       .  A
C897        C898   1.404       .  A
C897        H902   1.083       .  S
C899        C900   1.401       .  A
C899        H903   1.084       .  S
C900        C951   1.478       .  S
C900       C1219   1.400   1_554  A
C901       C1006   1.400       .  A
C901       H1010   1.068       .  S
H904       C1219   1.068       .  S
C905        C952   1.479       .  S
C905       C1012   1.399   1_655  A
C905        C910   1.401       .  A
C906       C1223   1.399   1_455  A
C907        C908   1.399       .  A
C908        H912   1.084       .  S
C909        C910   1.412       .  A
C910        H913   1.083       .  S
C914        C915   1.399       .  A
C914       C1343   1.401       .  A
C915        C916   1.410       .  A
C915        H920   1.083       .  S
C916       C1616   1.501       .  S
C916       C1659   1.413   1_554  A
C917       C1446   1.413       .  A
C917        C918   1.401       .  A
C917        H921   1.083       .  S
C918        C953   1.474       .  S
C918       C1025   1.392       .  A
C919       C1338   1.401   1_545  A
C919       C1236   1.392   1_554  A
C919       H1240   1.065       .  S
H922       C1025   1.065       .  S
C923        C949   1.472       .  S
C923       C1242   1.399   1_554  A
C923        C928   1.399       .  A
C924       C1029   1.399       .  A
C924        C925   1.401       .  A
C924        H929   1.070       .  S
C925        C926   1.399       .  A
C926        C927   1.404       .  A
C926        H930   1.083       .  S
C927       C1034   1.405       .  A
C928       C1245   1.405   1_554  A
C928        H931   1.084       .  S
Zn932       O936   1.971       .  S
Zn932       O937   2.039       .  S
Zn932       O941   2.004       .  S
Zn932       O948   2.042       .  S
Zn933       O936   1.971       .  S
Zn933       O938   2.038       .  S
Zn933       O940   1.996       .  S
Zn933       O944   2.008       .  S
Zn934       O936   1.967       .  S
Zn934       O939   2.049       .  S
Zn934       O942   2.007       .  S
Zn934       O945   2.036       .  S
Zn935       O936   1.955       .  S
Zn935       O943   2.052       .  S
Zn935       O946   2.043       .  S
Zn935       O947   2.049       .  S
O937        C949   1.277       .  A
O938        C950   1.274       .  A
O939        C951   1.278       .  A
O940        C949   1.271       .  A
O941        C951   1.272       .  A
O942        C950   1.274       .  A
O943        C952   1.279       .  A
O944        C953   1.270       .  A
O945        C952   1.274       .  A
O946        C953   1.277       .  A
O947        C954   1.278       .  A
O948        C954   1.275       .  A
Zn955       O959   1.951       .  S
Zn955       O960   2.033       .  S
Zn955       O964   2.021       .  S
Zn955       O971   2.039       .  S
Zn956       O959   1.966       .  S
Zn956       O961   2.013       .  S
Zn956       O963   2.004       .  S
Zn956       O967   2.058       .  S
Zn957       O959   1.970       .  S
Zn957       O962   2.009       .  S
Zn957       O965   2.036       .  S
Zn957       O968   1.998       .  S
Zn958       O959   1.966       .  S
Zn958       O966   2.051       .  S
Zn958       O969   2.011       .  S
Zn958       O970   2.043       .  S
O960        C972   1.276       .  A
O961        C973   1.276       .  A
O962        C974   1.270       .  A
O963        C972   1.270       .  A
O964        C974   1.274       .  A
O965        C973   1.275       .  A
O966        C975   1.279       .  A
O967        C976   1.277       .  A
O968        C975   1.272       .  A
O969        C976   1.275       .  A
O970        C977   1.274       .  A
O971        C977   1.277       .  A
C972       C1013   1.470       .  S
C973       C1031   1.481       .  S
C974        C995   1.466       .  S
C975        C986   1.476       .  S
C976       C1002   1.488       .  S
C977       C1020   1.477       .  S
C978        C979   1.422       .  A
C979       C1033   1.492       .  S
C979        C980   1.424   1_545  A
C980       C1552   1.501   1_565  S
C981        C982   1.421   1_455  A
C982        C997   1.498       .  S
C982        C983   1.424       .  A
C983       C1412   1.494       .  S
C984       C1056   1.482       .  S
C984        C989   1.399       .  A
C985       C1090   1.404   1_565  A
C985       C1410   1.399       .  A
C985       H1414   1.070       .  S
C986       C1409   1.399       .  A
C986        C987   1.402       .  A
C987       C1518   1.406       .  A
C987        H991   1.084       .  S
C988       C1407   1.494   1_565  S
C988       C1305   1.406       .  A
C988        C989   1.403   1_565  A
C989        H992   1.083       .  S
H990       C1409   1.070       .  S
C993       C1060   1.479       .  S
C993       C1100   1.400       .  A
C993        C998   1.400       .  A
C994        C995   1.391       .  A
C994        H999   1.063       .  S
C995        C996   1.395       .  A
C996        C997   1.409       .  A
C996       H1000   1.084       .  S
C998       C1103   1.413       .  A
C998       H1001   1.083       .  S
C1002      C1003   1.401       .  A
C1003      C1004   1.404       .  A
C1003      H1008   1.083       .  S
C1005      C1006   1.401       .  A
C1005      H1009   1.084       .  S
C1006      C1057   1.478       .  S
C1007      C1112   1.400       .  A
C1007      H1116   1.068       .  S
C1011      C1058   1.479       .  S
C1011      C1118   1.399   1_655  A
C1011      C1016   1.401       .  A
C1013      C1014   1.399       .  A
C1014      H1018   1.084       .  S
C1015      C1016   1.412       .  A
C1016      H1019   1.083       .  S
C1020      C1021   1.399       .  A
C1020      C1449   1.401       .  A
C1021      C1022   1.410       .  A
C1021      H1026   1.083       .  S
C1022      C1298   1.501       .  S
C1022      C1341   1.413       .  A
C1023      C1552   1.413       .  A
C1023      C1024   1.401       .  A
C1023      H1027   1.083       .  S
C1024      C1059   1.474       .  S
C1024      C1131   1.392       .  A
C1025      C1444   1.401   1_545  A
H1028      C1131   1.065       .  S
C1029      C1055   1.472       .  S
C1029      C1034   1.399       .  A
C1030      C1135   1.399       .  A
C1030      C1031   1.401       .  A
C1030      H1035   1.070       .  S
C1031      C1032   1.399       .  A
C1032      C1033   1.404       .  A
C1032      H1036   1.083       .  S
C1033      C1140   1.405       .  A
C1034      H1037   1.084       .  S
Zn1038     O1042   1.971       .  S
Zn1038     O1043   2.039       .  S
Zn1038     O1047   2.004       .  S
Zn1038     O1054   2.042       .  S
Zn1039     O1042   1.971       .  S
Zn1039     O1044   2.038       .  S
Zn1039     O1046   1.996       .  S
Zn1039     O1050   2.008       .  S
Zn1040     O1042   1.967       .  S
Zn1040     O1045   2.049       .  S
Zn1040     O1048   2.007       .  S
Zn1040     O1051   2.036       .  S
Zn1041     O1042   1.955       .  S
Zn1041     O1049   2.052       .  S
Zn1041     O1052   2.043       .  S
Zn1041     O1053   2.049       .  S
O1043      C1055   1.277       .  A
O1044      C1056   1.274       .  A
O1045      C1057   1.278       .  A
O1046      C1055   1.271       .  A
O1047      C1057   1.272       .  A
O1048      C1056   1.274       .  A
O1049      C1058   1.279       .  A
O1050      C1059   1.270       .  A
O1051      C1058   1.274       .  A
O1052      C1059   1.277       .  A
O1053      C1060   1.278       .  A
O1054      C1060   1.275       .  A
Zn1061     O1065   1.951       .  S
Zn1061     O1066   2.033       .  S
Zn1061     O1070   2.021       .  S
Zn1061     O1077   2.039       .  S
Zn1062     O1065   1.966       .  S
Zn1062     O1067   2.013       .  S
Zn1062     O1069   2.004       .  S
Zn1062     O1073   2.058       .  S
Zn1063     O1065   1.970       .  S
Zn1063     O1068   2.009       .  S
Zn1063     O1071   2.036       .  S
Zn1063     O1074   1.998       .  S
Zn1064     O1065   1.966       .  S
Zn1064     O1072   2.051       .  S
Zn1064     O1075   2.010       .  S
Zn1064     O1076   2.043       .  S
O1066      C1078   1.276       .  A
O1067      C1079   1.276       .  A
O1068      C1080   1.270       .  A
O1069      C1078   1.270       .  A
O1070      C1080   1.274       .  A
O1071      C1079   1.275       .  A
O1072      C1081   1.279       .  A
O1073      C1082   1.277       .  A
O1074      C1081   1.272       .  A
O1075      C1082   1.275       .  A
O1076      C1083   1.274       .  A
O1077      C1083   1.277       .  A
C1078      C1119   1.470       .  S
C1079      C1137   1.481       .  S
C1080      C1101   1.466       .  S
C1081      C1092   1.476       .  S
C1082      C1108   1.488       .  S
C1083      C1126   1.477       .  S
C1084      C1085   1.422       .  A
C1085      C1139   1.492       .  S
C1085      C1086   1.424   1_545  A
C1086      C1658   1.501   1_565  S
C1087      C1088   1.421   1_455  A
C1088      C1103   1.498       .  S
C1088      C1089   1.424       .  A
C1089      C1518   1.494       .  S
C1090      C1162   1.482       .  S
C1090      C1095   1.399       .  A
C1091      C1196   1.404   1_565  A
C1091      C1516   1.399       .  A
C1091      H1520   1.070       .  S
C1092      C1515   1.399       .  A
C1092      C1093   1.402       .  A
C1093      C1624   1.406       .  A
C1093      H1097   1.084       .  S
C1094      C1513   1.494   1_565  S
C1094      C1411   1.406       .  A
C1094      C1095   1.403   1_565  A
C1095      H1098   1.083       .  S
H1096      C1515   1.070       .  S
C1099      C1166   1.479       .  S
C1099      C1206   1.400       .  A
C1099      C1104   1.400       .  A
C1100      C1101   1.391       .  A
C1100      H1105   1.063       .  S
C1101      C1102   1.395       .  A
C1102      C1103   1.409       .  A
C1102      H1106   1.084       .  S
C1104      C1209   1.413       .  A
C1104      H1107   1.083       .  S
C1108      C1109   1.401       .  A
C1109      C1110   1.404       .  A
C1109      H1114   1.083       .  S
C1111      C1112   1.401       .  A
C1111      H1115   1.084       .  S
C1112      C1163   1.478       .  S
C1113      C1218   1.400       .  A
C1113      H1222   1.068       .  S
C1117      C1164   1.479       .  S
C1117      C1224   1.399   1_655  A
C1117      C1122   1.401       .  A
C1119      C1120   1.399       .  A
C1120      H1124   1.084       .  S
C1121      C1122   1.412       .  A
C1122      H1125   1.083       .  S
C1126      C1127   1.399       .  A
C1126      C1555   1.401       .  A
C1127      C1128   1.410       .  A
C1127      H1132   1.083       .  S
C1128      C1404   1.501       .  S
C1128      C1447   1.413       .  A
C1129      C1658   1.413       .  A
C1129      C1130   1.401       .  A
C1129      H1133   1.083       .  S
C1130      C1165   1.474       .  S
C1130      C1237   1.392       .  A
C1131      C1550   1.401   1_545  A
H1134      C1237   1.065       .  S
C1135      C1161   1.472       .  S
C1135      C1140   1.399       .  A
C1136      C1241   1.399       .  A
C1136      C1137   1.401       .  A
C1136      H1141   1.070       .  S
C1137      C1138   1.399       .  A
C1138      C1139   1.404       .  A
C1138      H1142   1.083       .  S
C1139      C1246   1.405       .  A
C1140      H1143   1.084       .  S
Zn1144     O1148   1.971       .  S
Zn1144     O1149   2.039       .  S
Zn1144     O1153   2.004       .  S
Zn1144     O1160   2.042       .  S
Zn1145     O1148   1.971       .  S
Zn1145     O1150   2.038       .  S
Zn1145     O1152   1.996       .  S
Zn1145     O1156   2.008       .  S
Zn1146     O1148   1.967       .  S
Zn1146     O1151   2.049       .  S
Zn1146     O1154   2.007       .  S
Zn1146     O1157   2.036       .  S
Zn1147     O1148   1.955       .  S
Zn1147     O1155   2.052       .  S
Zn1147     O1158   2.043       .  S
Zn1147     O1159   2.049       .  S
O1149      C1161   1.277       .  A
O1150      C1162   1.274       .  A
O1151      C1163   1.278       .  A
O1152      C1161   1.271       .  A
O1153      C1163   1.272       .  A
O1154      C1162   1.274       .  A
O1155      C1164   1.279       .  A
O1156      C1165   1.270       .  A
O1157      C1164   1.274       .  A
O1158      C1165   1.277       .  A
O1159      C1166   1.278       .  A
O1160      C1166   1.275       .  A
Zn1167     O1171   1.951       .  S
Zn1167     O1172   2.033       .  S
Zn1167     O1176   2.021       .  S
Zn1167     O1183   2.039       .  S
Zn1168     O1171   1.966       .  S
Zn1168     O1173   2.013       .  S
Zn1168     O1175   2.004       .  S
Zn1168     O1179   2.058       .  S
Zn1169     O1171   1.969       .  S
Zn1169     O1174   2.008       .  S
Zn1169     O1177   2.036       .  S
Zn1169     O1180   1.998       .  S
Zn1170     O1171   1.966       .  S
Zn1170     O1178   2.051       .  S
Zn1170     O1181   2.010       .  S
Zn1170     O1182   2.043       .  S
O1172      C1184   1.276       .  A
O1173      C1185   1.276       .  A
O1174      C1186   1.270       .  A
O1175      C1184   1.270       .  A
O1176      C1186   1.274       .  A
O1177      C1185   1.275       .  A
O1178      C1187   1.279       .  A
O1179      C1188   1.277       .  A
O1180      C1187   1.272       .  A
O1181      C1188   1.275       .  A
O1182      C1189   1.274       .  A
O1183      C1189   1.277       .  A
C1184      C1225   1.470       .  S
C1185      C1243   1.481       .  S
C1186      C1207   1.466       .  S
C1187      C1198   1.476       .  S
C1188      C1214   1.488       .  S
C1189      C1232   1.477       .  S
C1190      C1191   1.422       .  A
C1191      C1245   1.492   1_554  S
C1191      C1192   1.424   1_545  A
C1192      C1340   1.501   1_565  S
C1193      C1194   1.421   1_455  A
C1194      C1209   1.498       .  S
C1194      C1195   1.424       .  A
C1195      C1624   1.494       .  S
C1196      C1268   1.482       .  S
C1196      C1201   1.399       .  A
C1197      C1622   1.399   1_554  A
C1197      H1626   1.070       .  S
C1198      C1621   1.399   1_556  A
C1198      C1199   1.402       .  A
C1199      C1306   1.406   1_556  A
C1199      H1203   1.084       .  S
C1200      C1619   1.494   1_565  S
C1200      C1517   1.406       .  A
C1200      C1201   1.402   1_565  A
C1201      H1204   1.083       .  S
H1202      C1621   1.070       .  S
C1205      C1272   1.480       .  S
C1205      C1210   1.400       .  A
C1206      C1207   1.391       .  A
C1206      H1211   1.063       .  S
C1207      C1208   1.395       .  A
C1208      C1209   1.409       .  A
C1208      H1212   1.084       .  S
C1210      H1213   1.083       .  S
C1214      C1215   1.401       .  A
C1215      C1216   1.404       .  A
C1215      H1220   1.083       .  S
C1217      C1218   1.401       .  A
C1217      H1221   1.084       .  S
C1218      C1269   1.478       .  S
C1223      C1270   1.479       .  S
C1223      C1228   1.401       .  A
C1225      C1226   1.399       .  A
C1226      H1230   1.084       .  S
C1227      C1228   1.412   1_554  A
C1228      H1231   1.083       .  S
C1232      C1233   1.399       .  A
C1232      C1661   1.401       .  A
C1233      C1234   1.410       .  A
C1233      H1238   1.083       .  S
C1234      C1510   1.501       .  S
C1234      C1553   1.413       .  A
C1235      C1340   1.413   1_556  A
C1235      C1236   1.401       .  A
C1235      H1239   1.083       .  S
C1236      C1271   1.474       .  S
C1237      C1656   1.401   1_545  A
C1241      C1267   1.472       .  S
C1241      C1246   1.399       .  A
C1242      C1243   1.401       .  A
C1242      H1247   1.070       .  S
C1243      C1244   1.399       .  A
C1244      C1245   1.404       .  A
C1244      H1248   1.083       .  S
C1246      H1249   1.084       .  S
Zn1250     O1254   1.971       .  S
Zn1250     O1255   2.039       .  S
Zn1250     O1259   2.004       .  S
Zn1250     O1266   2.042       .  S
Zn1251     O1254   1.971       .  S
Zn1251     O1256   2.038       .  S
Zn1251     O1258   1.996       .  S
Zn1251     O1262   2.008       .  S
Zn1252     O1254   1.967       .  S
Zn1252     O1257   2.049       .  S
Zn1252     O1260   2.007       .  S
Zn1252     O1263   2.036       .  S
Zn1253     O1254   1.955       .  S
Zn1253     O1261   2.052       .  S
Zn1253     O1264   2.043       .  S
Zn1253     O1265   2.049       .  S
O1255      C1267   1.277       .  A
O1256      C1268   1.274       .  A
O1257      C1269   1.278       .  A
O1258      C1267   1.271       .  A
O1259      C1269   1.272       .  A
O1260      C1268   1.274       .  A
O1261      C1270   1.279       .  A
O1262      C1271   1.270       .  A
O1263      C1270   1.274       .  A
O1264      C1271   1.277       .  A
O1265      C1272   1.278       .  A
O1266      C1272   1.275       .  A
Zn1273     O1277   1.951       .  S
Zn1273     O1278   2.033       .  S
Zn1273     O1282   2.021       .  S
Zn1273     O1289   2.039       .  S
Zn1274     O1277   1.966       .  S
Zn1274     O1279   2.012       .  S
Zn1274     O1281   2.004       .  S
Zn1274     O1285   2.058       .  S
Zn1275     O1277   1.970       .  S
Zn1275     O1280   2.009       .  S
Zn1275     O1283   2.036       .  S
Zn1275     O1286   1.998       .  S
Zn1276     O1277   1.966       .  S
Zn1276     O1284   2.051       .  S
Zn1276     O1287   2.011       .  S
Zn1276     O1288   2.043       .  S
O1278      C1290   1.276       .  A
O1279      C1291   1.275       .  A
O1280      C1292   1.270       .  A
O1281      C1290   1.270       .  A
O1282      C1292   1.274       .  A
O1283      C1291   1.275       .  A
O1284      C1293   1.279       .  A
O1285      C1294   1.277       .  A
O1286      C1293   1.272       .  A
O1287      C1294   1.275       .  A
O1288      C1295   1.274       .  A
O1289      C1295   1.277       .  A
C1290      C1331   1.470       .  S
C1291      C1349   1.481       .  S
C1292      C1313   1.466       .  S
C1293      C1304   1.476       .  S
C1294      C1320   1.488       .  S
C1295      C1338   1.477       .  S
C1296      C1297   1.422       .  A
C1297      C1351   1.492       .  S
C1297      C1298   1.424       .  A
C1299      C1300   1.421   1_455  A
C1300      C1315   1.498       .  S
C1300      C1301   1.424   1_565  A
C1302      C1374   1.482       .  S
C1302      C1621   1.404       .  A
C1302      C1307   1.399       .  A
C1303      C1408   1.404       .  A
C1304      C1305   1.402       .  A
C1305      H1309   1.084       .  S
C1306      C1307   1.403       .  A
C1307      H1310   1.083       .  S
C1311      C1378   1.479       .  S
C1311      C1418   1.399       .  A
C1311      C1316   1.400       .  A
C1312      C1629   1.399       .  A
C1312      C1313   1.391   1_556  A
C1312      H1317   1.064       .  S
C1313      C1314   1.396       .  A
C1314      C1315   1.409       .  A
C1314      H1318   1.084       .  S
C1315      C1634   1.413   1_554  A
C1316      C1421   1.413       .  A
C1316      H1319   1.083       .  S
C1320      C1321   1.401       .  A
C1321      C1322   1.404       .  A
C1321      H1326   1.083       .  S
C1323      C1324   1.401       .  A
C1323      H1327   1.084       .  S
C1324      C1375   1.478       .  S
C1324      C1643   1.401   1_554  A
C1325      C1430   1.401       .  A
C1325      H1434   1.068       .  S
H1328      C1643   1.068       .  S
C1329      C1376   1.479       .  S
C1329      C1436   1.399   1_655  A
C1329      C1334   1.401       .  A
C1330      C1647   1.399   1_455  A
C1331      C1332   1.399       .  A
C1332      H1336   1.084       .  S
C1333      C1334   1.412       .  A
C1334      H1337   1.083       .  S
C1338      C1339   1.399       .  A
C1339      C1340   1.410   1_565  A
C1339      H1344   1.083       .  S
C1341      C1342   1.401       .  A
C1341      H1345   1.083       .  S
C1342      C1377   1.474       .  S
C1342      C1449   1.392       .  A
C1343      C1660   1.392   1_554  A
C1343      H1664   1.065       .  S
H1346      C1449   1.065       .  S
C1347      C1373   1.472       .  S
C1347      C1666   1.399   1_554  A
C1347      C1352   1.399       .  A
C1348      C1453   1.399       .  A
C1348      C1349   1.401       .  A
C1348      H1353   1.070       .  S
C1349      C1350   1.399       .  A
C1350      C1351   1.404       .  A
C1350      H1354   1.083       .  S
C1351      C1458   1.405       .  A
C1352      C1669   1.405   1_554  A
C1352      H1355   1.084       .  S
Zn1356     O1360   1.971       .  S
Zn1356     O1361   2.039       .  S
Zn1356     O1365   2.005       .  S
Zn1356     O1372   2.042       .  S
Zn1357     O1360   1.971       .  S
Zn1357     O1362   2.038       .  S
Zn1357     O1364   1.996       .  S
Zn1357     O1368   2.008       .  S
Zn1358     O1360   1.967       .  S
Zn1358     O1363   2.049       .  S
Zn1358     O1366   2.007       .  S
Zn1358     O1369   2.036       .  S
Zn1359     O1360   1.955       .  S
Zn1359     O1367   2.052       .  S
Zn1359     O1370   2.043       .  S
Zn1359     O1371   2.049       .  S
O1361      C1373   1.277       .  A
O1362      C1374   1.274       .  A
O1363      C1375   1.278       .  A
O1364      C1373   1.271       .  A
O1365      C1375   1.272       .  A
O1366      C1374   1.274       .  A
O1367      C1376   1.279       .  A
O1368      C1377   1.270       .  A
O1369      C1376   1.274       .  A
O1370      C1377   1.277       .  A
O1371      C1378   1.278       .  A
O1372      C1378   1.275       .  A
Zn1379     O1383   1.951       .  S
Zn1379     O1384   2.033       .  S
Zn1379     O1388   2.021       .  S
Zn1379     O1395   2.039       .  S
Zn1380     O1383   1.966       .  S
Zn1380     O1385   2.012       .  S
Zn1380     O1387   2.004       .  S
Zn1380     O1391   2.058       .  S
Zn1381     O1383   1.969       .  S
Zn1381     O1386   2.009       .  S
Zn1381     O1389   2.036       .  S
Zn1381     O1392   1.998       .  S
Zn1382     O1383   1.966       .  S
Zn1382     O1390   2.051       .  S
Zn1382     O1393   2.011       .  S
Zn1382     O1394   2.043       .  S
O1384      C1396   1.276       .  A
O1385      C1397   1.276       .  A
O1386      C1398   1.270       .  A
O1387      C1396   1.270       .  A
O1388      C1398   1.274       .  A
O1389      C1397   1.275       .  A
O1390      C1399   1.279       .  A
O1391      C1400   1.277       .  A
O1392      C1399   1.272       .  A
O1393      C1400   1.275       .  A
O1394      C1401   1.274       .  A
O1395      C1401   1.277       .  A
C1396      C1437   1.470       .  S
C1397      C1455   1.481       .  S
C1398      C1419   1.466       .  S
C1399      C1410   1.476       .  S
C1400      C1426   1.488       .  S
C1401      C1444   1.477       .  S
C1402      C1403   1.422       .  A
C1403      C1457   1.492       .  S
C1403      C1404   1.424       .  A
C1405      C1406   1.421   1_455  A
C1406      C1421   1.498       .  S
C1406      C1407   1.424   1_565  A
C1408      C1480   1.482       .  S
C1408      C1413   1.399       .  A
C1409      C1514   1.404       .  A
C1410      C1411   1.402       .  A
C1411      H1415   1.084       .  S
C1412      C1413   1.403       .  A
C1413      H1416   1.083       .  S
C1417      C1484   1.479       .  S
C1417      C1524   1.400       .  A
C1417      C1422   1.400       .  A
C1418      C1419   1.391       .  A
C1418      H1423   1.064       .  S
C1419      C1420   1.396       .  A
C1420      C1421   1.409       .  A
C1420      H1424   1.084       .  S
C1422      C1527   1.413       .  A
C1422      H1425   1.083       .  S
C1426      C1427   1.401       .  A
C1427      C1428   1.404       .  A
C1427      H1432   1.083       .  S
C1429      C1430   1.401       .  A
C1429      H1433   1.084       .  S
C1430      C1481   1.478       .  S
C1431      C1536   1.401       .  A
C1431      H1540   1.068       .  S
C1435      C1482   1.479       .  S
C1435      C1542   1.399   1_655  A
C1435      C1440   1.401       .  A
C1437      C1438   1.399       .  A
C1438      H1442   1.084       .  S
C1439      C1440   1.412       .  A
C1440      H1443   1.083       .  S
C1444      C1445   1.399       .  A
C1445      C1446   1.410   1_565  A
C1445      H1450   1.083       .  S
C1447      C1448   1.401       .  A
C1447      H1451   1.083       .  S
C1448      C1483   1.474       .  S
C1448      C1555   1.392       .  A
H1452      C1555   1.065       .  S
C1453      C1479   1.472       .  S
C1453      C1458   1.399       .  A
C1454      C1559   1.399       .  A
C1454      C1455   1.401       .  A
C1454      H1459   1.069       .  S
C1455      C1456   1.399       .  A
C1456      C1457   1.404       .  A
C1456      H1460   1.083       .  S
C1457      C1564   1.405       .  A
C1458      H1461   1.084       .  S
Zn1462     O1466   1.971       .  S
Zn1462     O1467   2.039       .  S
Zn1462     O1471   2.005       .  S
Zn1462     O1478   2.042       .  S
Zn1463     O1466   1.971       .  S
Zn1463     O1468   2.038       .  S
Zn1463     O1470   1.996       .  S
Zn1463     O1474   2.008       .  S
Zn1464     O1466   1.967       .  S
Zn1464     O1469   2.049       .  S
Zn1464     O1472   2.007       .  S
Zn1464     O1475   2.036       .  S
Zn1465     O1466   1.955       .  S
Zn1465     O1473   2.052       .  S
Zn1465     O1476   2.043       .  S
Zn1465     O1477   2.049       .  S
O1467      C1479   1.277       .  A
O1468      C1480   1.274       .  A
O1469      C1481   1.278       .  A
O1470      C1479   1.271       .  A
O1471      C1481   1.272       .  A
O1472      C1480   1.274       .  A
O1473      C1482   1.279       .  A
O1474      C1483   1.270       .  A
O1475      C1482   1.274       .  A
O1476      C1483   1.277       .  A
O1477      C1484   1.278       .  A
O1478      C1484   1.275       .  A
Zn1485     O1489   1.951       .  S
Zn1485     O1490   2.033       .  S
Zn1485     O1494   2.021       .  S
Zn1485     O1501   2.039       .  S
Zn1486     O1489   1.966       .  S
Zn1486     O1491   2.012       .  S
Zn1486     O1493   2.004       .  S
Zn1486     O1497   2.058       .  S
Zn1487     O1489   1.970       .  S
Zn1487     O1492   2.009       .  S
Zn1487     O1495   2.036       .  S
Zn1487     O1498   1.998       .  S
Zn1488     O1489   1.966       .  S
Zn1488     O1496   2.051       .  S
Zn1488     O1499   2.011       .  S
Zn1488     O1500   2.043       .  S
O1490      C1502   1.276       .  A
O1491      C1503   1.275       .  A
O1492      C1504   1.270       .  A
O1493      C1502   1.270       .  A
O1494      C1504   1.274       .  A
O1495      C1503   1.275       .  A
O1496      C1505   1.279       .  A
O1497      C1506   1.277       .  A
O1498      C1505   1.272       .  A
O1499      C1506   1.275       .  A
O1500      C1507   1.274       .  A
O1501      C1507   1.277       .  A
C1502      C1543   1.470       .  S
C1503      C1561   1.481       .  S
C1504      C1525   1.466       .  S
C1505      C1516   1.476       .  S
C1506      C1532   1.488       .  S
C1507      C1550   1.477       .  S
C1508      C1509   1.422       .  A
C1509      C1563   1.492       .  S
C1509      C1510   1.424       .  A
C1511      C1512   1.421   1_455  A
C1512      C1527   1.498       .  S
C1512      C1513   1.424   1_565  A
C1514      C1586   1.482       .  S
C1514      C1519   1.399       .  A
C1515      C1620   1.404       .  A
C1516      C1517   1.402       .  A
C1517      H1521   1.084       .  S
C1518      C1519   1.403       .  A
C1519      H1522   1.083       .  S
C1523      C1590   1.479       .  S
C1523      C1630   1.399       .  A
C1523      C1528   1.401       .  A
C1524      C1525   1.391       .  A
C1524      H1529   1.063       .  S
C1525      C1526   1.395       .  A
C1526      C1527   1.409       .  A
C1526      H1530   1.084       .  S
C1528      C1633   1.413       .  A
C1528      H1531   1.083       .  S
C1532      C1533   1.401       .  A
C1533      C1534   1.404       .  A
C1533      H1538   1.083       .  S
C1535      C1536   1.401       .  A
C1535      H1539   1.084       .  S
C1536      C1587   1.478       .  S
C1537      C1642   1.400       .  A
C1537      H1646   1.068       .  S
C1541      C1588   1.479       .  S
C1541      C1648   1.399   1_655  A
C1541      C1546   1.401       .  A
C1543      C1544   1.399       .  A
C1544      H1548   1.084       .  S
C1545      C1546   1.412       .  A
C1546      H1549   1.083       .  S
C1550      C1551   1.399       .  A
C1551      C1552   1.410   1_565  A
C1551      H1556   1.083       .  S
C1553      C1554   1.401       .  A
C1553      H1557   1.083       .  S
C1554      C1589   1.474       .  S
C1554      C1661   1.392       .  A
H1558      C1661   1.065       .  S
C1559      C1585   1.472       .  S
C1559      C1564   1.399       .  A
C1560      C1665   1.399       .  A
C1560      C1561   1.401       .  A
C1560      H1565   1.070       .  S
C1561      C1562   1.399       .  A
C1562      C1563   1.404       .  A
C1562      H1566   1.083       .  S
C1563      C1670   1.405       .  A
C1564      H1567   1.084       .  S
Zn1568     O1572   1.971       .  S
Zn1568     O1573   2.039       .  S
Zn1568     O1577   2.005       .  S
Zn1568     O1584   2.042       .  S
Zn1569     O1572   1.971       .  S
Zn1569     O1574   2.038       .  S
Zn1569     O1576   1.996       .  S
Zn1569     O1580   2.008       .  S
Zn1570     O1572   1.967       .  S
Zn1570     O1575   2.049       .  S
Zn1570     O1578   2.007       .  S
Zn1570     O1581   2.036       .  S
Zn1571     O1572   1.955       .  S
Zn1571     O1579   2.052       .  S
Zn1571     O1582   2.043       .  S
Zn1571     O1583   2.049       .  S
O1573      C1585   1.277       .  A
O1574      C1586   1.274       .  A
O1575      C1587   1.278       .  A
O1576      C1585   1.271       .  A
O1577      C1587   1.272       .  A
O1578      C1586   1.274       .  A
O1579      C1588   1.279       .  A
O1580      C1589   1.270       .  A
O1581      C1588   1.274       .  A
O1582      C1589   1.277       .  A
O1583      C1590   1.278       .  A
O1584      C1590   1.275       .  A
Zn1591     O1595   1.951       .  S
Zn1591     O1596   2.033       .  S
Zn1591     O1600   2.021       .  S
Zn1591     O1607   2.039       .  S
Zn1592     O1595   1.966       .  S
Zn1592     O1597   2.012       .  S
Zn1592     O1599   2.004       .  S
Zn1592     O1603   2.058       .  S
Zn1593     O1595   1.970       .  S
Zn1593     O1598   2.009       .  S
Zn1593     O1601   2.036       .  S
Zn1593     O1604   1.998       .  S
Zn1594     O1595   1.966       .  S
Zn1594     O1602   2.051       .  S
Zn1594     O1605   2.011       .  S
Zn1594     O1606   2.043       .  S
O1596      C1608   1.276       .  A
O1597      C1609   1.275       .  A
O1598      C1610   1.270       .  A
O1599      C1608   1.270       .  A
O1600      C1610   1.274       .  A
O1601      C1609   1.275       .  A
O1602      C1611   1.279       .  A
O1603      C1612   1.277       .  A
O1604      C1611   1.272       .  A
O1605      C1612   1.275       .  A
O1606      C1613   1.274       .  A
O1607      C1613   1.277       .  A
C1608      C1649   1.470       .  S
C1609      C1667   1.481       .  S
C1610      C1631   1.466       .  S
C1611      C1622   1.476       .  S
C1612      C1638   1.488       .  S
C1613      C1656   1.477       .  S
C1614      C1615   1.422       .  A
C1615      C1669   1.492   1_554  S
C1615      C1616   1.424       .  A
C1617      C1618   1.421   1_455  A
C1618      C1633   1.498       .  S
C1618      C1619   1.424   1_565  A
C1620      C1692   1.482       .  S
C1620      C1625   1.399       .  A
C1622      C1623   1.402       .  A
C1623      H1627   1.084       .  S
C1624      C1625   1.403       .  A
C1625      H1628   1.083       .  S
C1629      C1696   1.479       .  S
C1629      C1634   1.401       .  A
C1630      C1631   1.391       .  A
C1630      H1635   1.064       .  S
C1631      C1632   1.396       .  A
C1632      C1633   1.409       .  A
C1632      H1636   1.084       .  S
C1634      H1637   1.083       .  S
C1638      C1639   1.401       .  A
C1639      C1640   1.404       .  A
C1639      H1644   1.083       .  S
C1641      C1642   1.401       .  A
C1641      H1645   1.084       .  S
C1642      C1693   1.478       .  S
C1647      C1694   1.479       .  S
C1647      C1652   1.401       .  A
C1649      C1650   1.399       .  A
C1650      H1654   1.084       .  S
C1651      C1652   1.412   1_554  A
C1652      H1655   1.083       .  S
C1656      C1657   1.399       .  A
C1657      C1658   1.410   1_565  A
C1657      H1662   1.083       .  S
C1659      C1660   1.401       .  A
C1659      H1663   1.083       .  S
C1660      C1695   1.474       .  S
C1665      C1691   1.472       .  S
C1665      C1670   1.399       .  A
C1666      C1667   1.401       .  A
C1666      H1671   1.070       .  S
C1667      C1668   1.399       .  A
C1668      C1669   1.404       .  A
C1668      H1672   1.083       .  S
C1670      H1673   1.084       .  S
Zn1674     O1678   1.971       .  S
Zn1674     O1679   2.039       .  S
Zn1674     O1683   2.004       .  S
Zn1674     O1690   2.042       .  S
Zn1675     O1678   1.971       .  S
Zn1675     O1680   2.038       .  S
Zn1675     O1682   1.996       .  S
Zn1675     O1686   2.008       .  S
Zn1676     O1678   1.967       .  S
Zn1676     O1681   2.049       .  S
Zn1676     O1684   2.007       .  S
Zn1676     O1687   2.036       .  S
Zn1677     O1678   1.955       .  S
Zn1677     O1685   2.052       .  S
Zn1677     O1688   2.043       .  S
Zn1677     O1689   2.049       .  S
O1679      C1691   1.277       .  A
O1680      C1692   1.274       .  A
O1681      C1693   1.278       .  A
O1682      C1691   1.271       .  A
O1683      C1693   1.272       .  A
O1684      C1692   1.274       .  A
O1685      C1694   1.279       .  A
O1686      C1695   1.270       .  A
O1687      C1694   1.274       .  A
O1688      C1695   1.277       .  A
O1689      C1696   1.278       .  A
O1690      C1696   1.275       .  A
