geometry optimzed in LAMMPS
_audit_creation_date              2020-11-30 
_audit_creation_method            'lammps2cif' 
_symmetry_space_group_name_H-M    'P1' 
_symmetry_Int_Tables_number       1 
_symmetry_cell_setting            triclinic 
loop_ 
_symmetry_equiv_pos_as_xyz 
  x,y,z 
_cell_length_a                    25.06543582 
_cell_length_b                    25.301804910412496 
_cell_length_c                    84.31606814357507 
_cell_angle_alpha                 89.84363048563864 
_cell_angle_beta                  90.18408416987106 
_cell_angle_gamma                 90.09964069716855 
loop_ 
_atom_site_label 
_atom_site_type_symbol 
_atom_site_fract_x 
_atom_site_fract_y 
_atom_site_fract_z 
_atom_site_charge 
N1          N  0.81915811  0.58336307  0.38760848    -0.36000
N2          N  0.78490751  0.49944865  0.40890550    -0.56500
N3          N  0.81266217  0.42329140  0.38446800    -0.36000
N4          N  0.85465011  0.50703075  0.36426158    -0.56500
C5          C  0.81219512  0.61055762  0.40123601     0.27600
C6          C  0.84647135  0.61513429  0.37757611     0.27600
C7          C  0.80204033  0.39103013  0.39689257     0.27600
C8          C  0.84099410  0.39476333  0.37389455     0.27600
C9          C  0.76487250  0.54134951  0.41675705     0.36200
C10         C  0.75993896  0.45639167  0.41479262     0.36200
C11         C  0.86003849  0.55152788  0.35548348     0.36200
C12         C  0.85985613  0.46586995  0.35418342     0.36200
C13         C  0.83574892  0.65999856  0.39989650    -0.21300
C14         C  0.85740321  0.66289536  0.38496353    -0.21300
C15         C  0.82358510  0.34150030  0.39418492    -0.21300
C16         C  0.84844679  0.34391107  0.37972926    -0.21300
C17         C  0.72757351  0.52478904  0.42782483    -0.22300
C18         C  0.72453272  0.47078722  0.42659498    -0.22300
C19         C  0.86951153  0.53857472  0.33977740    -0.22300
C20         C  0.86949275  0.48425273  0.33896080    -0.22300
C21         C  0.78051973  0.59418770  0.41418057    -0.17700
C22         C  0.85871100  0.60351567  0.36160554    -0.17700
C23         C  0.85731988  0.41201839  0.35869151    -0.17700
C24         C  0.77090039  0.40410458  0.41020894    -0.17700
H25         H  0.83622647  0.69118817  0.40866014     0.15200
H26         H  0.87814033  0.69667149  0.38002782     0.15200
H27         H  0.82150995  0.30710889  0.40182381     0.15200
H28         H  0.86932269  0.31160119  0.37411637     0.15200
H29         H  0.70473425  0.54899739  0.43588605     0.13500
H30         H  0.69916221  0.44508491  0.43356556     0.13500
H31         H  0.87585110  0.56541896  0.32994332     0.13500
H32         H  0.87555316  0.46101810  0.32836397     0.13500
H33         H  0.80001995  0.54843051  0.38453709     0.26800
H34         H  0.79598628  0.46028725  0.38249975     0.26800
N35         N  0.29283024  0.43316588  0.37036074    -0.36000
N36         N  0.28799726  0.51711967  0.34632886    -0.56500
N37         N  0.29263479  0.59296361  0.37230304    -0.36000
N38         N  0.30050427  0.50881410  0.39554084    -0.56500
C39         C  0.29962007  0.40643409  0.35666010     0.27600
C40         C  0.31211154  0.40225874  0.38223108     0.27600
C41         C  0.30031866  0.62436504  0.35949567     0.27600
C42         C  0.31013367  0.62004547  0.38515073     0.27600
C43         C  0.27088970  0.47561560  0.33757756     0.36200
C44         C  0.27250917  0.56139044  0.33854078     0.36200
C45         C  0.29898145  0.46465098  0.40452441     0.36200
C46         C  0.29785570  0.55004313  0.40558105     0.36200
C47         C  0.32341731  0.35808042  0.35981357    -0.21300
C48         C  0.33124037  0.35539504  0.37592056    -0.21300
C49         C  0.32311650  0.67177424  0.36424431    -0.21300
C50         C  0.32926816  0.66907388  0.38042085    -0.21300
C51         C  0.24492248  0.49359817  0.32406753    -0.22300
C52         C  0.24610803  0.54799026  0.32465444    -0.22300
C53         C  0.29478238  0.47790563  0.42042141    -0.22300
C54         C  0.29387452  0.53212003  0.42108117    -0.22300
C55         C  0.27963235  0.42200703  0.34166790    -0.17700
C56         C  0.30973844  0.41369742  0.39865773    -0.17700
C57         C  0.30682235  0.60292985  0.40110646    -0.17700
C58         C  0.28244894  0.61345765  0.34391872    -0.17700
H59         H  0.33327794  0.32744173  0.35138530     0.15200
H60         H  0.34800204  0.32202532  0.38223357     0.15200
H61         H  0.33355512  0.70521232  0.35683659     0.15200
H62         H  0.34531143  0.70008797  0.38786523     0.15200
H63         H  0.22628497  0.47021747  0.31486394     0.13500
H64         H  0.22849712  0.57445596  0.31601426     0.13500
H65         H  0.29490317  0.45160650  0.43055369     0.13500
H66         H  0.29306807  0.55562773  0.43178463     0.13500
H67         H  0.27017851  0.46729047  0.37159011     0.26800
H68         H  0.27071541  0.55804904  0.37243858     0.26800
C69         C  0.40657520  0.88090207  0.46528681     0.43100
N70         N  0.41951524  0.95037162  0.47917105     0.02000
C71         C  0.65620072  0.09252181  0.48264385    -0.05900
H72         H  0.67487400  0.88374687  0.49429597     0.07500
C73         C  0.55252985  0.91207390  0.54193686    -0.06200
Co74       Co  0.52525238  0.99908795  0.47122866     0.74200
N75         N  0.61184118  0.93729852  0.48718761    -0.25400
Co76       Co  0.61058885  0.99871101  0.50369070     0.74100
C77         C  0.59955510  0.88069862  0.53872995     0.43200
N78         N  0.43767076  0.95872352  0.52634438     0.01600
N79         N  0.59638201  0.94468951  0.52211341     0.01700
N80         N  0.59870454  0.08802399  0.46196704    -0.46300
H81         H  0.48680176  0.88957436  0.45260721     0.07500
N82         N  0.57917480  0.93793727  0.47488376     0.02000
N83         N  0.60649288  0.05996234  0.52021042     0.01700
C84         C  0.62209557  0.12657736  0.53503512     0.43300
N85         N  0.40441320  0.95804163  0.51418710    -0.24900
C86         C  0.47253097  0.10093997  0.45779814    -0.05800
N87         N  0.38446175  0.91182768  0.47655201    -0.46000
N88         N  0.64300874  0.09664603  0.52335098    -0.46200
C89         C  0.42560512  0.13235616  0.46144002     0.43100
N90         N  0.58776461  0.05200138  0.47279878     0.02000
N91         N  0.41391826  0.07410483  0.51217084    -0.24900
N92         N  0.46246642  0.94598745  0.47024671    -0.25400
N93         N  0.44766689  0.07340458  0.52421147     0.01600
H94         H  0.35502332  0.13162776  0.50458207     0.07500
H95         H  0.54166722  0.11882148  0.54766677     0.07500
N96         N  0.62073495  0.05314840  0.48503761    -0.25400
N97         N  0.55374212  0.95048524  0.53108185    -0.25100
N98         N  0.42876500  0.06612434  0.47727195     0.02000
C99         C  0.62565046  0.86793534  0.47166100     0.43400
C100        C  0.36987853  0.91765934  0.51623928    -0.06300
N101        N  0.56365179  0.06455428  0.52915529    -0.25100
H102        H  0.52309689  0.90768727  0.55119164     0.07500
N103        N  0.58653213  0.89756004  0.46525476    -0.46300
H104        H  0.33923765  0.90551709  0.50795245     0.07500
C105        C  0.40679454  0.14695926  0.52679061     0.43200
C106        C  0.45787164  0.90319351  0.46115130    -0.05800
Co107      Co  0.41480082  0.01221981  0.49562508     0.73800
N108        N  0.42827579  0.92070161  0.53669539    -0.46000
C109        C  0.64107526  0.11528515  0.46726250     0.43500
N110        N  0.39999132  0.10844181  0.47357129    -0.46000
Co111      Co  0.50040903  0.01191147  0.52796009     0.73900
C112        C  0.56983030  0.10576227  0.53882136    -0.06300
C113        C  0.64290839  0.89409661  0.48622760    -0.05900
N114        N  0.47126982  0.06091584  0.46820148    -0.25400
N115        N  0.62541664  0.90305156  0.52634130    -0.46200
H116        H  0.68806413  0.10379595  0.49062957     0.07500
C117        C  0.38554912  0.11929751  0.51288658    -0.06300
Cl118      Cl  0.51280518  0.00547384  0.49961133    -0.49300
C119        C  0.38633415  0.89310907  0.53123068     0.43200
H120        H  0.50229873  0.10694550  0.44871738     0.07400
N121        N  0.44462107  0.11590454  0.53317383    -0.46000
N122        N  0.74788145  0.58124619  0.62786045    -0.36000
N123        N  0.77328705  0.50013807  0.65101829    -0.56500
N124        N  0.75257534  0.42023802  0.62647666    -0.36000
N125        N  0.72017390  0.50160337  0.60434171    -0.56500
C126        C  0.75522217  0.61101157  0.64097411     0.27600
C127        C  0.72162726  0.61142294  0.61712856     0.27600
C128        C  0.75719265  0.38941675  0.63952677     0.27600
C129        C  0.73102977  0.39010938  0.61483902     0.27600
C130        C  0.79342243  0.54240514  0.65882056     0.36200
C131        C  0.79204039  0.45682041  0.65858453     0.36200
C132        C  0.71403001  0.54532121  0.59531597     0.36200
C133        C  0.71884700  0.46005626  0.59433744     0.36200
C134        C  0.73379972  0.66084841  0.63854320    -0.21300
C135        C  0.71236660  0.66106301  0.62353171    -0.21300
C136        C  0.73862342  0.33897034  0.63611175    -0.21300
C137        C  0.72213357  0.33941489  0.62054212    -0.21300
C138        C  0.82403677  0.52592247  0.67160523    -0.22300
C139        C  0.82306365  0.47166295  0.67148552    -0.22300
C140        C  0.70791880  0.53144721  0.57951528    -0.22300
C141        C  0.71137160  0.47742070  0.57888079    -0.22300
C142        C  0.78368580  0.59565112  0.65469286    -0.17700
C143        C  0.71018420  0.59720906  0.60126923    -0.17700
C144        C  0.72066546  0.40656905  0.59908145    -0.17700
C145        C  0.78164258  0.40407360  0.65402059    -0.17700
H146        H  0.73400663  0.69381229  0.64670050     0.15200
H147        H  0.69340218  0.69456318  0.61786157     0.15200
H148        H  0.73757222  0.30513714  0.64399204     0.15200
H149        H  0.70565212  0.30611048  0.61414243     0.15200
H150        H  0.84523280  0.55035917  0.68005634     0.13500
H151        H  0.84369528  0.44615423  0.67979223     0.13500
H152        H  0.70118727  0.55737744  0.56948522     0.13500
H153        H  0.70801089  0.45367437  0.56826685     0.13500
H154        H  0.76597024  0.54513042  0.62567206     0.26800
H155        H  0.76916746  0.45757902  0.62507863     0.26800
N156        N  0.24796879  0.42596608  0.61862617    -0.36000
N157        N  0.27226097  0.51026060  0.59615247    -0.56500
N158        N  0.26020620  0.58740993  0.62123581    -0.36000
N159        N  0.23727947  0.50343306  0.64396156    -0.56500
C160        C  0.26960559  0.39777791  0.60661395     0.27600
C161        C  0.24682631  0.39418589  0.63157866     0.27600
C162        C  0.28034437  0.61888210  0.60969925     0.27600
C163        C  0.26050201  0.61536334  0.63489203     0.27600
C164        C  0.27299424  0.46898210  0.58603966     0.36200
C165        C  0.27692489  0.55451768  0.58725884     0.36200
C166        C  0.21904926  0.46027560  0.65172321     0.36200
C167        C  0.22456390  0.54559739  0.65298643     0.36200
C168        C  0.28116928  0.34710544  0.61198849    -0.21300
C169        C  0.26670988  0.34486365  0.62768935    -0.21300
C170        C  0.29281384  0.66787082  0.61612069    -0.21300
C171        C  0.28031253  0.66565084  0.63194830    -0.21300
C172        C  0.27797944  0.48721025  0.57057826    -0.22300
C173        C  0.28028056  0.54130102  0.57135094    -0.22300
C174        C  0.19522057  0.47491515  0.66584745    -0.22300
C175        C  0.19876533  0.52900908  0.66666333    -0.22300
C176        C  0.27706206  0.41550416  0.59077139    -0.17700
C177        C  0.22663607  0.40771338  0.64668969    -0.17700
C178        C  0.23882527  0.59847619  0.64954940    -0.17700
C179        C  0.28472746  0.60590521  0.59338217    -0.17700
H180        H  0.29777899  0.31467176  0.60529965     0.15200
H181        H  0.27058038  0.31077304  0.63538903     0.15200
H182        H  0.30793259  0.70244520  0.61004404     0.15200
H183        H  0.28424050  0.69808871  0.64019482     0.15200
H184        H  0.28184625  0.46420478  0.55985939     0.13500
H185        H  0.28614044  0.56760643  0.56136603     0.13500
H186        H  0.17769024  0.44927994  0.67471874     0.13500
H187        H  0.18459725  0.55322033  0.67633244     0.13500
H188        H  0.23007442  0.46291444  0.61768494     0.26800
H189        H  0.24142491  0.55125574  0.61954961     0.26800
C190        C  0.95573548  0.12683207  0.29568356     0.43100
N191        N  0.98647038  0.10277687  0.27317611     0.02000
C192        C  0.95681874  0.87505599  0.22919434    -0.05900
H193        H  0.03480900  0.83957369  0.28545220     0.07500
C194        C  0.19089598  0.95106085  0.27536627    -0.06200
Co195      Co  0.94360613  0.00006746  0.26131873     0.74200
N196        N  0.00323450  0.90933053  0.27454286    -0.25400
Co197      Co  0.04668756  0.91199255  0.25380711     0.74100
C198        C  0.17937583  0.90038310  0.28314401     0.43200
N199        N  0.13820768  0.08027363  0.26425292     0.01600
N200        N  0.11561753  0.91904793  0.26724719     0.01700
N201        N  0.89169707  0.93241312  0.23584325    -0.46300
H202        H  0.90182623  0.05271552  0.29735446     0.07500
N203        N  0.96391659  0.94170954  0.27807829     0.02000
N204        N  0.09508163  0.91551118  0.23363218     0.01700
C205        C  0.15167708  0.89392874  0.21550604     0.43300
N206        N  0.09845410  0.11432794  0.26492543    -0.24900
C207        C  0.87875509  0.05806528  0.23623584    -0.05800
N208        N  0.98860375  0.14066369  0.28386595    -0.46000
N209        N  0.11020387  0.87581781  0.22434635    -0.46200
C210        C  0.88362668  0.10459758  0.22634295     0.43100
N211        N  0.93518552  0.94026642  0.24443788     0.02000
N212        N  0.07594771  0.10514959  0.23134710    -0.24900
N213        N  0.95468778  0.06326657  0.27727464    -0.25400
N214        N  0.11515543  0.07046001  0.23060048     0.01600
H215        H  0.05789847  0.17365167  0.21673254     0.07500
H216        H  0.19496601  0.97308107  0.21779589     0.07500
N217        N  0.97445791  0.90767002  0.24078567    -0.25400
N218        N  0.14844351  0.95967683  0.26582796    -0.25100
N219        N  0.95600786  0.09468100  0.23973863     0.02000
C220        C  0.96589481  0.88446493  0.29699065     0.43400
C221        C  0.11271461  0.15523403  0.27397004    -0.06300
N222        N  0.12621192  0.95709077  0.23190307    -0.25100
H223        H  0.22622635  0.97553565  0.27609776     0.07500
N224        N  0.93885853  0.92711015  0.29132166    -0.46300
H225        H  0.08895197  0.19004035  0.27622575     0.07500
C226        C  0.12673144  0.11739882  0.20975681     0.43200
C227        C  0.93203481  0.07563235  0.29129865    -0.05800
Co228      Co  0.02864058  0.10530094  0.25202209     0.73800
N229        N  0.18079117  0.09662673  0.27232391    -0.46000
C230        C  0.90164707  0.89205817  0.22594275     0.43500
N231        N  0.93241218  0.12619914  0.22914203    -0.46000
Co232      Co  0.13264438  0.01700258  0.24834847     0.73900
C233        C  0.16090319  0.94818189  0.22034011    -0.06300
C234        C  0.00818113  0.87310498  0.28588155    -0.05900
N235        N  0.92470317  0.05521225  0.24409428    -0.25400
N236        N  0.13255060  0.88307020  0.27742756    -0.46200
H237        H  0.97948099  0.84353862  0.22381535     0.07500
C238        C  0.08106891  0.13826421  0.21879365    -0.06300
Cl239      Cl  0.03787243  0.00863132  0.25385301    -0.49300
C240        C  0.16689709  0.14358477  0.27874398     0.43200
H241        H  0.84511506  0.03189710  0.23793955     0.07400
N242        N  0.14535538  0.07603827  0.21797714    -0.46000
C243        C  0.90229883  0.59958208  0.96862264     0.43100
N244        N  0.97189441  0.58834421  0.98290408     0.02000
C245        C  0.13283733  0.36516867  0.98437473    -0.05900
H246        H  0.92498691  0.32737688  0.99237079     0.07500
C247        C  0.93632644  0.44063819  0.04264032    -0.06200
Co248      Co  0.03019327  0.48972693  0.97370993     0.74200
N249        N  0.97413261  0.39559012  0.98710067    -0.25400
Co250      Co  0.03316923  0.39972005  0.00463693     0.74100
C251        C  0.90996620  0.39157717  0.03828721     0.43200
N252        N  0.97476078  0.56288230  0.02969096     0.01600
N253        N  0.97491503  0.40557339  0.02233606     0.01700
N254        N  0.12823557  0.42592773  0.96468529    -0.46300
H255        H  0.91777208  0.52405722  0.95434253     0.07500
N256        N  0.97312253  0.43052822  0.97545548     0.02000
N257        N  0.09231333  0.40671655  0.02214456     0.01700
C258        C  0.15891114  0.39524619  0.03772322     0.43300
N259        N  0.97380776  0.59806767  0.01811637    -0.24900
C260        C  0.12877368  0.55199032  0.96253881    -0.05800
N261        N  0.93128422  0.62099336  0.98050318    -0.46000
N262        N  0.13266524  0.37414469  0.02518965    -0.46200
C263        C  0.15637356  0.59963870  0.96730530     0.43100
N264        N  0.08936401  0.43230651  0.97505106     0.02000
N265        N  0.09147242  0.59800860  0.01743071    -0.24900
N266        N  0.97124786  0.54751314  0.97316811    -0.25400
N267        N  0.09116169  0.56374221  0.02925582     0.01600
H268        H  0.14365379  0.66370686  0.01173661     0.07500
H269        H  0.13964470  0.47038739  0.05181444     0.07500
N270        N  0.09101232  0.39753116  0.98674663    -0.25400
N271        N  0.97561990  0.44620088  0.03213259    -0.25100
N272        N  0.08880569  0.58892407  0.98230669     0.02000
C273        C  0.90776712  0.37887647  0.97032695     0.43400
C274        C  0.93237269  0.63094484  0.02058859    -0.06300
N275        N  0.09117695  0.44727862  0.03194525    -0.25100
H276        H  0.92867541  0.46668840  0.05251677     0.07500
N277        N  0.93422301  0.42187393  0.96516695    -0.46300
H278        H  0.92112825  0.66393987  0.01312221     0.07500
C279        C  0.15935784  0.61247216  0.03393441     0.43200
C280        C  0.92847840  0.55120871  0.96371318    -0.05800
Co281      Co  0.03151819  0.59499845  0.00012023     0.73800
N282        N  0.93607195  0.56952371  0.04009828    -0.46000
C283        C  0.15741505  0.38457961  0.96975309     0.43500
N284        N  0.12965548  0.62112387  0.97958278    -0.46000
Co285      Co  0.03313873  0.50508233  0.03102265     0.73900
C286        C  0.13141977  0.44326842  0.04222633    -0.06300
C287        C  0.93407276  0.36091866  0.98486997    -0.05900
N288        N  0.08760013  0.54843660  0.97247305    -0.25400
N289        N  0.93602729  0.37153329  0.02563223    -0.46200
H290        H  0.14445540  0.33246426  0.99190530     0.07500
C291        C  0.13358354  0.63061685  0.01930770    -0.06300
Cl292      Cl  0.03197856  0.49735377  0.00236609    -0.49300
C293        C  0.90746006  0.61142545  0.03519326     0.43200
H294        H  0.13804774  0.52469228  0.95310176     0.07400
N295        N  0.13058058  0.57142400  0.03943474    -0.46000
N296        N  0.61093586  0.77844225  0.88134779    -0.36000
N297        N  0.53067518  0.74012502  0.90281713    -0.56500
N298        N  0.44842577  0.76494796  0.87964091    -0.36000
N299        N  0.52845073  0.79976795  0.85739695    -0.56500
C300        C  0.64084759  0.74977488  0.89163672     0.27600
C301        C  0.63969902  0.78399815  0.86791142     0.27600
C302        C  0.42115512  0.73394193  0.88990068     0.27600
C303        C  0.41959839  0.76732582  0.86605193     0.27600
C304        C  0.57326860  0.73722415  0.91259066     0.36200
C305        C  0.48736816  0.73153850  0.91189378     0.36200
C306        C  0.57040440  0.82628899  0.85120285     0.36200
C307        C  0.48416329  0.81922192  0.85025494     0.36200
C308        C  0.68909742  0.73697617  0.88467511    -0.21300
C309        C  0.68820235  0.75817554  0.86964370    -0.21300
C310        C  0.37445236  0.71642612  0.88277619    -0.21300
C311        C  0.37372151  0.73702358  0.86768411    -0.21300
C312        C  0.55707515  0.72683705  0.92798522    -0.22300
C313        C  0.50244902  0.72330375  0.92755303    -0.22300
C314        C  0.55278455  0.86300452  0.84015939    -0.22300
C315        C  0.49810996  0.85879994  0.83963736    -0.22300
C316        C  0.62638281  0.73668446  0.90732988    -0.17700
C317        C  0.62438087  0.81481024  0.85462883    -0.17700
C318        C  0.43196440  0.79934441  0.85275789    -0.17700
C319        C  0.43551146  0.72428321  0.90585741    -0.17700
H320        H  0.72154242  0.71457893  0.88985809     0.15200
H321        H  0.71982004  0.75485649  0.86100191     0.15200
H322        H  0.34376143  0.69167022  0.88790875     0.15200
H323        H  0.34261054  0.73048526  0.85898435     0.15200
H324        H  0.58209271  0.72049810  0.93830308     0.13500
H325        H  0.47699426  0.71360603  0.93749372     0.13500
H326        H  0.57674118  0.89015561  0.83324559     0.13500
H327        H  0.47186416  0.88257190  0.83234502     0.13500
H328        H  0.57546921  0.79801765  0.88388285     0.26800
H329        H  0.48130550  0.78832619  0.88242929     0.26800
N330        N  0.61318217  0.20790410  0.88194325    -0.36000
N331        N  0.53012860  0.19042773  0.85823521    -0.56500
N332        N  0.45066898  0.21659302  0.88214414    -0.36000
N333        N  0.53312109  0.23647922  0.90528267    -0.56500
C334        C  0.64250475  0.20475606  0.86849486     0.28800
C335        C  0.64413806  0.23154268  0.89309598     0.27600
C336        C  0.42142811  0.21666306  0.86863684     0.27600
C337        C  0.42350726  0.24543119  0.89296184     0.27600
C338        C  0.57233785  0.17055509  0.85026748     0.36200
C339        C  0.48575656  0.17280783  0.85072688     0.36200
C340        C  0.57670453  0.23863413  0.91470250     0.36200
C341        C  0.49029286  0.24307120  0.91475952     0.36200
C342        C  0.69266610  0.22612439  0.87120646    -0.21300
C343        C  0.69400843  0.24214573  0.88669877    -0.21300
C344        C  0.37564113  0.24637205  0.87079408    -0.21300
C345        C  0.37665615  0.26409925  0.88614458    -0.21300
C346        C  0.55478143  0.14053579  0.83755979    -0.22300
C347        C  0.49990425  0.14164447  0.83790861    -0.22300
C348        C  0.56148109  0.24618566  0.93033042    -0.22300
C349        C  0.50673935  0.24892693  0.93037067    -0.22300
C350        C  0.62638847  0.18075002  0.85406154    -0.17700
C351        C  0.62952282  0.24224905  0.90903562    -0.17700
C352        C  0.43794529  0.25182869  0.90909821    -0.17700
C353        C  0.43304644  0.18727750  0.85483938    -0.17700
H354        H  0.72528474  0.22998003  0.86291212     0.15200
H355        H  0.72838925  0.25939170  0.89248073     0.15200
H356        H  0.34426474  0.25404804  0.86225218     0.15200
H357        H  0.34560851  0.28732579  0.89159581     0.15200
H358        H  0.57894165  0.11968330  0.82900616     0.13500
H359        H  0.47364973  0.12183712  0.82962372     0.13500
H360        H  0.58708674  0.25170998  0.94054759     0.13500
H361        H  0.48231494  0.25715453  0.94061951     0.13500
H362        H  0.57617607  0.19042412  0.88379040     0.26800
H363        H  0.48354818  0.19261764  0.88436493     0.26800
C364        C  0.92199801  0.88100157  0.71172743     0.43100
N365        N  0.93735299  0.94367652  0.72820613     0.02000
C366        C  0.16298626  0.10295026  0.72908113    -0.05900
H367        H  0.19918985  0.89405249  0.73599614     0.07500
C368        C  0.09837851  0.90763896  0.78882251    -0.06200
Co369      Co  0.03617502  0.00224346  0.71923238     0.74200
N370        N  0.13139524  0.94515574  0.73152827    -0.25400
Co371      Co  0.12847874  0.00230221  0.74944789     0.74100
C372        C  0.15082646  0.88712882  0.78426739     0.43200
N373        N  0.96333904  0.94344857  0.77572037     0.01600
N374        N  0.12435779  0.94376126  0.76690100     0.01700
N375        N  0.10006262  0.09782632  0.70988977    -0.46300
H376        H  0.99730256  0.90038341  0.69736609     0.07500
N377        N  0.09483842  0.94543775  0.72026642     0.02000
N378        N  0.12381120  0.05823935  0.76744968     0.01700
C379        C  0.15086691  0.11062021  0.78583076     0.43300
N380        N  0.92979496  0.94369568  0.76359223    -0.24900
C381        C  0.97208193  0.09809531  0.70797363    -0.05800
N382        N  0.90267102  0.90545604  0.72478320    -0.46000
N383        N  0.16341822  0.08989281  0.77161477    -0.46200
C384        C  0.92358946  0.12478760  0.71269166     0.43100
N385        N  0.09419341  0.05992775  0.72047667     0.02000
N386        N  0.93067277  0.05841937  0.76393724    -0.24900
N387        N  0.97763677  0.94502586  0.71819771    -0.25400
N388        N  0.96451087  0.05730458  0.77598753     0.01600
H389        H  0.85519440  0.09709334  0.76046967     0.07500
H390        H  0.07881654  0.09023401  0.80151159     0.07500
N391        N  0.13017053  0.06149329  0.73189757    -0.25400
N392        N  0.08523118  0.94246634  0.77739865    -0.25100
N393        N  0.93775947  0.06020184  0.72856950     0.02000
C394        C  0.14469417  0.88018438  0.71425654     0.43400
C395        C  0.88817788  0.91256990  0.76701509    -0.06300
N396        N  0.08529253  0.05673402  0.77811520    -0.25100
H397        H  0.07750986  0.90290242  0.79994427     0.07500
N398        N  0.10116844  0.90738024  0.70980314    -0.46300
H399        H  0.85121055  0.91187995  0.76036504     0.07500
C400        C  0.90394830  0.11283988  0.78305492     0.43200
C401        C  0.97131081  0.90726972  0.70735641    -0.05800
Co402      Co  0.93284620  0.00149312  0.74603077     0.73800
N403        N  0.94505942  0.91501775  0.78778265    -0.46000
C404        C  0.14226657  0.12683007  0.71437835     0.43500
N405        N  0.90381058  0.09929079  0.72553336    -0.46000
Co406      Co  0.02465074  0.99981433  0.77708744     0.73900
C407        C  0.09894618  0.08859083  0.79019577    -0.06300
C408        C  0.16537931  0.90501612  0.72870559    -0.05900
N409        N  0.97772683  0.05912418  0.71847175    -0.25400
N410        N  0.16391840  0.91138465  0.77057371    -0.46200
H411        H  0.19702877  0.11428891  0.73622187     0.07500
C412        C  0.89181901  0.09306609  0.76718136    -0.06300
Cl413      Cl  0.03051005  0.00132363  0.74808985    -0.49300
C414        C  0.89775189  0.89420390  0.78317344     0.43200
H415        H  0.99808922  0.10565619  0.69801593     0.07400
N416        N  0.94937822  0.08848998  0.78775130    -0.46000
N417        N  0.52066417  0.20342151  0.14801648    -0.36000
N418        N  0.61145635  0.22730232  0.12740707    -0.56500
N419        N  0.54012216  0.24751057  0.10115889    -0.36000
N420        N  0.44954152  0.22765634  0.12217561    -0.56500
C421        C  0.56047342  0.20738972  0.15883117     0.27600
C422        C  0.47375319  0.20625186  0.15592566     0.27600
C423        C  0.58661229  0.26632628  0.09530125     0.27600
C424        C  0.50028464  0.27110253  0.09296786     0.27600
C425        C  0.63687237  0.20597924  0.14002324     0.36200
C426        C  0.64689208  0.22715933  0.11534723     0.36200
C427        C  0.41328558  0.20813724  0.13250754     0.36200
C428        C  0.42365153  0.23489830  0.10826813     0.36200
C429        C  0.53866180  0.21227318  0.17385069    -0.21300
C430        C  0.48395293  0.21120850  0.17203077    -0.21300
C431        C  0.57626370  0.30180241  0.08311432    -0.21300
C432        C  0.52167364  0.30480903  0.08163530    -0.21300
C433        C  0.68838719  0.19160166  0.13587475    -0.22300
C434        C  0.69479447  0.20530848  0.12024651    -0.22300
C435        C  0.36411732  0.20287159  0.12506709    -0.22300
C436        C  0.37066211  0.22000012  0.10974758    -0.22300
C437        C  0.61572147  0.20348059  0.15552423    -0.17700
C438        C  0.42240594  0.20140372  0.14895750    -0.17700
C439        C  0.44535571  0.26090522  0.09493695    -0.17700
C440        C  0.63792189  0.25092934  0.10045357    -0.17700
H441        H  0.55992541  0.21554246  0.18499771     0.15200
H442        H  0.45517417  0.21348011  0.18153315     0.15200
H443        H  0.60495200  0.32351422  0.07607024     0.15200
H444        H  0.50020484  0.32890847  0.07313285     0.15200
H445        H  0.71852961  0.17372229  0.14336616     0.13500
H446        H  0.73076998  0.20043886  0.11333957     0.13500
H447        H  0.32677606  0.19023646  0.13025068     0.13500
H448        H  0.33951339  0.22276370  0.10086637     0.13500
H449        H  0.52539960  0.19338856  0.13616224     0.26800
H450        H  0.53597973  0.21653831  0.10920323     0.26800
N451        N  0.53288503  0.74329508  0.10242215    -0.36000
N452        N  0.45142641  0.76642772  0.12583866    -0.56500
N453        N  0.53316890  0.79527547  0.14917732    -0.36000
N454        N  0.61493334  0.76369222  0.12662545    -0.56500
C455        C  0.48893361  0.72400027  0.09504032     0.27600
C456        C  0.57579559  0.72030507  0.09565991     0.27600
C457        C  0.48929832  0.79157489  0.15854637     0.27600
C458        C  0.57680494  0.79343287  0.15874181     0.27600
C459        C  0.42169940  0.76564281  0.11241696     0.36200
C460        C  0.42140533  0.79045967  0.13698468     0.36200
C461        C  0.64608072  0.75591079  0.11373671     0.36200
C462        C  0.64681352  0.78493961  0.13796631     0.36200
C463        C  0.50410244  0.68890296  0.08329949    -0.21300
C464        C  0.55897813  0.68668360  0.08365809    -0.21300
C465        C  0.50551547  0.78766483  0.17426562    -0.21300
C466        C  0.56045925  0.78928465  0.17438418    -0.21300
C467        C  0.37307424  0.79002194  0.11494394    -0.22300
C468        C  0.37308266  0.80624396  0.13044632    -0.22300
C469        C  0.69782295  0.77208466  0.11691175    -0.22300
C470        C  0.69822539  0.79084346  0.13217334    -0.22300
C471        C  0.43577656  0.73849656  0.09843104    -0.17700
C472        C  0.62969503  0.73059066  0.09957748    -0.17700
C473        C  0.63097127  0.79597214  0.15375737    -0.17700
C474        C  0.43528120  0.79372109  0.15326040    -0.17700
H475        H  0.47840780  0.66704835  0.07532068     0.15200
H476        H  0.58366643  0.66291490  0.07596299     0.15200
H477        H  0.48073191  0.78333056  0.18465891     0.15200
H478        H  0.58550995  0.78638182  0.18482481     0.15200
H479        H  0.34083294  0.79522708  0.10651421     0.13500
H480        H  0.34090969  0.82705291  0.13622448     0.13500
H481        H  0.73186190  0.77025217  0.10906543     0.13500
H482        H  0.73272893  0.80662740  0.13828088     0.13500
H483        H  0.53380320  0.77392725  0.11061821     0.26800
H484        H  0.53333188  0.80334069  0.13707795     0.26800
C485        C  0.23703276  0.13749838  0.81765264     0.30400
C486        C  0.25537903  0.13628590  0.83340971    -0.35900
C487        C  0.30878611  0.15137625  0.83577150     0.16400
C488        C  0.34174876  0.16694794  0.82353309     0.22200
C489        C  0.32349540  0.16794864  0.80781673    -0.34100
C490        C  0.27031391  0.15267447  0.80543848     0.16300
O491        O  0.18934123  0.12286871  0.81254955    -0.26100
C492        C  0.19242373  0.12877271  0.79687687     0.06100
C493        C  0.24175609  0.14725964  0.79182892    -0.31000
O494        O  0.38988147  0.18047621  0.82844351    -0.22800
C495        C  0.38796903  0.17343378  0.84406932    -0.02800
C496        C  0.33853851  0.15483912  0.84924943    -0.17200
H497        H  0.23002077  0.12398129  0.84311304     0.20800
H498        H  0.34908733  0.17955713  0.79809409     0.19200
H499        H  0.25524510  0.15367863  0.77979220     0.19100
H500        H  0.32611555  0.14627498  0.86127148     0.15000
C501        C  0.81736879  0.13343382  0.81495647     0.30400
C502        C  0.79733854  0.12439272  0.83022857    -0.35900
C503        C  0.74551815  0.14267037  0.83309831     0.16400
C504        C  0.71555347  0.16915508  0.82187114     0.22200
C505        C  0.73560337  0.17820786  0.80652811    -0.34100
C506        C  0.78726395  0.15898643  0.80354916     0.16300
O507        O  0.86347094  0.11644455  0.80947348    -0.26100
C508        C  0.86291697  0.13076354  0.79428863     0.06100
C509        C  0.81658240  0.15757217  0.78993756    -0.31000
O510        O  0.66866672  0.18428470  0.82741157    -0.22800
C511        C  0.66870520  0.16703169  0.84237541    -0.02800
C512        C  0.71524781  0.14013085  0.84641101    -0.17200
H513        H  0.82022363  0.10360872  0.83918004     0.20800
H514        H  0.71232019  0.19813286  0.79749185     0.19200
H515        H  0.80518161  0.17169391  0.77828312     0.19100
H516        H  0.72607944  0.12327998  0.85778563     0.15000
C517        C  0.26785721  0.84452012  0.80313937     0.30400
C518        C  0.32263920  0.83342526  0.80429626    -0.35900
C519        C  0.34262181  0.82529418  0.81967578     0.16400
C520        C  0.31094158  0.82815393  0.83297794     0.22200
C521        C  0.25602103  0.83839779  0.83180734    -0.34100
C522        C  0.23594696  0.84627424  0.81643203     0.16300
O523        O  0.24155139  0.85662103  0.79006177    -0.26100
C524        C  0.19202348  0.86584444  0.79499676     0.06100
C525        C  0.18607448  0.85960559  0.81129629    -0.31000
O526        O  0.33808184  0.82047123  0.84619414    -0.22800
C527        C  0.38798132  0.81221268  0.84138482    -0.02800
C528        C  0.39293560  0.81436703  0.82492083    -0.17200
H529        H  0.34807104  0.83218456  0.79395506     0.20800
H530        H  0.23087437  0.84091705  0.84218702     0.19200
H531        H  0.15097063  0.86668035  0.81841506     0.19100
H532        H  0.42824909  0.80806962  0.81782543     0.15000
C533        C  0.70762638  0.84532106  0.82228933     0.30400
C534        C  0.72329922  0.84597086  0.80633616    -0.35900
C535        C  0.77620107  0.86125477  0.80342631     0.16400
C536        C  0.81128177  0.87523360  0.81535772     0.22200
C537        C  0.79531197  0.87543605  0.83129403    -0.34100
C538        C  0.74245836  0.85995887  0.83420614     0.16300
O539        O  0.66117423  0.82910344  0.82778636    -0.26100
C540        C  0.66625708  0.83331671  0.84345292     0.06100
C541        C  0.71580138  0.85314060  0.84808173    -0.31000
O542        O  0.85912751  0.88739304  0.80993391    -0.22800
C543        C  0.85457178  0.88113754  0.79431984    -0.02800
C544        C  0.80383429  0.86502074  0.78961272    -0.17200
H545        H  0.69649859  0.83424392  0.79688547     0.20800
H546        H  0.82246912  0.88595637  0.84078274     0.19200
H547        H  0.73066292  0.85957986  0.85999027     0.19100
H548        H  0.78931650  0.85755342  0.77772415     0.15000
C549        C  0.27188625  0.32709254  0.05159862     0.30400
C550        C  0.30885720  0.28562892  0.05311681    -0.35900
C551        C  0.34738148  0.29151883  0.06515319     0.16400
C552        C  0.34926804  0.33521816  0.07493682     0.22200
C553        C  0.31288820  0.37660048  0.07332379    -0.34100
C554        C  0.27453208  0.37058289  0.06142088     0.16300
O555        O  0.23094855  0.32942092  0.04166831    -0.26100
C556        C  0.20753694  0.37500495  0.04531923     0.06100
C557        C  0.23304721  0.40203772  0.05748339    -0.31000
O558        O  0.38551122  0.33107076  0.08615929    -0.22800
C559        C  0.40755954  0.28432789  0.08352115    -0.02800
C560        C  0.38573524  0.25780407  0.07059993    -0.17200
H561        H  0.30682361  0.25068213  0.04576692     0.20800
H562        H  0.31339257  0.41043176  0.08115506     0.19200
H563        H  0.22225351  0.43929994  0.06285241     0.19100
H564        H  0.39468975  0.21834124  0.06648364     0.15000
C565        C  0.80813911  0.31511860  0.05545053     0.30400
C566        C  0.76385496  0.28095249  0.05596372    -0.35900
C567        C  0.73760280  0.27720069  0.07064723     0.16400
C568        C  0.75436718  0.30448231  0.08393167     0.22200
C569        C  0.79848573  0.33833637  0.08342863    -0.34100
C570        C  0.82398490  0.34275787  0.06875604     0.16300
O571        O  0.83706586  0.32716066  0.04283650    -0.26100
C572        C  0.87128029  0.36327415  0.04823683     0.06100
C573        C  0.86481166  0.37441113  0.06422859    -0.31000
O574        O  0.72273345  0.29743821  0.09619076    -0.22800
C575        C  0.68478425  0.26556398  0.09071864    -0.02800
C576        C  0.69197732  0.25144764  0.07491299    -0.17200
H577        H  0.74983791  0.26013353  0.04555404     0.20800
H578        H  0.81098117  0.36107767  0.09364592     0.19200
H579        H  0.88650839  0.40255100  0.07144233     0.19100
H580        H  0.66628607  0.22729311  0.06755572     0.15000
C581        C  0.34504882  0.70650789  0.06767362     0.30400
C582        C  0.32343599  0.70551151  0.05220751    -0.35900
C583        C  0.27496532  0.67782305  0.05037627     0.16400
C584        C  0.25033131  0.65248707  0.06289929     0.22200
C585        C  0.27149761  0.65392343  0.07825149    -0.34100
C586        C  0.31922464  0.68184223  0.08008898     0.16300
O587        O  0.38991382  0.72966875  0.07225993    -0.26100
C588        C  0.39207929  0.71999732  0.08782124     0.06100
C589        C  0.34921907  0.69026262  0.09325479    -0.31000
O590        O  0.20680975  0.62719783  0.05864191    -0.22800
C591        C  0.20255013  0.63672027  0.04320610    -0.02800
C592        C  0.24365914  0.66829961  0.03732196    -0.17200
H593        H  0.34303268  0.72474526  0.04233093     0.20800
H594        H  0.25216969  0.63423890  0.08809827     0.19200
H595        H  0.34153145  0.67669308  0.10521996     0.19100
H596        H  0.25029569  0.68087404  0.02520691     0.15000
C597        C  0.80287287  0.63380140  0.06167292     0.30400
C598        C  0.77205006  0.62344037  0.07517027    -0.35900
C599        C  0.73319644  0.66110244  0.07883974     0.16400
C600        C  0.72472974  0.70584462  0.06977667     0.22200
C601        C  0.75543949  0.71604047  0.05613891    -0.34100
C602        C  0.79477112  0.67837367  0.05250900     0.16300
O603        O  0.84276849  0.60478704  0.05658288    -0.26100
C604        C  0.86073636  0.63073743  0.04394536     0.06100
C605        C  0.83233362  0.67685348  0.04075111    -0.31000
O606        O  0.68695567  0.73631194  0.07570492    -0.22800
C607        C  0.67148825  0.71066526  0.08873272    -0.02800
C608        C  0.69878212  0.66368694  0.09125629    -0.17200
H609        H  0.77868947  0.58887295  0.08250079     0.20800
H610        H  0.74971214  0.75127279  0.04903436     0.19200
H611        H  0.83916689  0.70551105  0.03142168     0.19100
H612        H  0.69416935  0.63588839  0.10093628     0.15000
C613        C  0.27069294  0.62076664  0.94498103     0.30400
C614        C  0.30870556  0.60777248  0.93353389    -0.35900
C615        C  0.34111112  0.64930967  0.92837994     0.16400
C616        C  0.33661810  0.70016019  0.93414437     0.22200
C617        C  0.29911159  0.71296859  0.94582880    -0.34100
C618        C  0.26650370  0.67132815  0.95098364     0.16300
O619        O  0.23352596  0.58900875  0.95040239    -0.26100
C620        C  0.20537679  0.61929657  0.96009739     0.06100
C621        C  0.22418478  0.67085331  0.96111199    -0.31000
O622        O  0.36935006  0.73331878  0.92705523    -0.22800
C623        C  0.39475881  0.70316246  0.91665637    -0.02800
C624        C  0.37925839  0.65053466  0.91699817    -0.17200
H625        H  0.31153853  0.56842937  0.92859818     0.20800
H626        H  0.29461807  0.75285171  0.95022765     0.19200
H627        H  0.20726928  0.70367718  0.96757302     0.19100
H628        H  0.39332433  0.61837729  0.90968453     0.15000
C629        C  0.78733238  0.62687012  0.94680494     0.30400
C630        C  0.74676090  0.61547825  0.93589850    -0.35900
C631        C  0.71759801  0.65880183  0.93033551     0.16400
C632        C  0.72739743  0.71000308  0.93519393     0.22200
C633        C  0.76736627  0.72130160  0.94642180    -0.34100
C634        C  0.79673167  0.67778080  0.95199720     0.16300
O635        O  0.82227800  0.59284258  0.95237693    -0.26100
C636        C  0.85423025  0.62200022  0.96140704     0.06100
C637        C  0.84009288  0.67511404  0.96180551    -0.31000
O638        O  0.69683523  0.74464400  0.92777220    -0.22800
C639        C  0.66734280  0.71493825  0.91811826    -0.02800
C640        C  0.67825817  0.66135366  0.91926181    -0.17200
H641        H  0.73970855  0.57578386  0.93161080     0.20800
H642        H  0.77603763  0.76129526  0.95016428     0.19200
H643        H  0.86065568  0.70731717  0.96765090     0.19100
H644        H  0.66034002  0.62923218  0.91266277     0.15000
C645        C  0.33869368  0.32326627  0.92900908     0.30400
C646        C  0.30303328  0.36509174  0.93119814    -0.35900
C647        C  0.26656239  0.35909169  0.94360410     0.16400
C648        C  0.26516755  0.31511775  0.95332565     0.22200
C649        C  0.30080334  0.27293025  0.95105802    -0.34100
C650        C  0.33731910  0.27884103  0.93854312     0.16300
O651        O  0.37502121  0.32028503  0.91781703    -0.26100
C652        C  0.39732480  0.27324923  0.92009465     0.06100
C653        C  0.37551691  0.24559671  0.93283629    -0.31000
O654        O  0.22708649  0.31802613  0.96411850    -0.22800
C655        C  0.20392184  0.36435030  0.96112356    -0.02800
C656        C  0.22682176  0.39142322  0.94850410    -0.17200
H657        H  0.30332909  0.39971603  0.92362985     0.20800
H658        H  0.29978962  0.23782272  0.95841163     0.19200
H659        H  0.38546034  0.20628507  0.93696888     0.19100
H660        H  0.21546546  0.42935926  0.94358304     0.15000
C661        C  0.80220272  0.34938177  0.94477125     0.30400
C662        C  0.76878769  0.35764340  0.93168688    -0.35900
C663        C  0.73073740  0.31834452  0.92883455     0.16400
C664        C  0.72589086  0.27355018  0.93810451     0.22200
C665        C  0.75902274  0.26559400  0.95139676    -0.34100
C666        C  0.79715752  0.30524818  0.95432350     0.16300
O667        O  0.84136716  0.38060243  0.94925156    -0.26100
C668        C  0.86173895  0.35657753  0.96191025     0.06100
C669        C  0.83586212  0.30951042  0.96570628    -0.31000
O670        O  0.68911148  0.24074385  0.93264464    -0.22800
C671        C  0.67047694  0.26515248  0.91974946    -0.02800
C672        C  0.69431095  0.31389955  0.91700187    -0.17200
H673        H  0.77272475  0.39201737  0.92410654     0.20800
H674        H  0.75593871  0.23060657  0.95875007     0.19200
H675        H  0.84482923  0.28217682  0.97523860     0.19100
H676        H  0.68697577  0.34116653  0.90732410     0.15000
C677        C  0.74566934  0.80816400  0.17841305     0.30400
C678        C  0.79686961  0.79568761  0.18439531    -0.35900
C679        C  0.81780966  0.83010361  0.19601001     0.16400
C680        C  0.78994524  0.87355956  0.20129284     0.22200
C681        C  0.73912320  0.88600884  0.19531790    -0.34100
C682        C  0.71832550  0.85176317  0.18379569     0.16300
O683        O  0.71867259  0.78214607  0.16737031    -0.26100
C684        C  0.67331253  0.80937814  0.16571451     0.06100
C685        C  0.67116298  0.85309955  0.17568560    -0.31000
O686        O  0.81608490  0.90023719  0.21224508    -0.22800
C687        C  0.86171091  0.87406139  0.21412630    -0.02800
C688        C  0.86521655  0.82991881  0.20428437    -0.17200
H689        H  0.81884316  0.76165135  0.18026021     0.20800
H690        H  0.71722403  0.92016138  0.19940891     0.19200
H691        H  0.63975824  0.88224014  0.17657331     0.19100
H692        H  0.89747666  0.80169398  0.20347986     0.15000
C693        C  0.34856417  0.82513068  0.18495548     0.30400
C694        C  0.33226025  0.85237835  0.19852777    -0.35900
C695        C  0.27829254  0.84730342  0.20258273     0.16400
C696        C  0.24231000  0.81775450  0.19389480     0.22200
C697        C  0.25922756  0.78863019  0.18065719    -0.34100
C698        C  0.31346130  0.79361142  0.17661922     0.16300
O699        O  0.39571046  0.82892620  0.17810349    -0.26100
C700        C  0.39138529  0.79893241  0.16520950     0.06100
C701        C  0.34113089  0.77517678  0.16392069    -0.31000
O702        O  0.19225076  0.82626912  0.19820823    -0.22800
C703        C  0.19654827  0.86132375  0.20989916    -0.02800
C704        C  0.24929759  0.87480572  0.21325217    -0.17200
H705        H  0.35899041  0.87847307  0.20490208     0.20800
H706        H  0.23144581  0.76646829  0.17340336     0.19200
H707        H  0.32637558  0.74950245  0.15464002     0.19100
H708        H  0.26386837  0.90506970  0.22122818     0.15000
C709        C  0.79486738  0.17085466  0.20057403     0.30400
C710        C  0.77644362  0.20941156  0.18984029    -0.35900
C711        C  0.72587611  0.20007510  0.18307143     0.16400
C712        C  0.69550408  0.15604651  0.18665292     0.22200
C713        C  0.71359247  0.11801926  0.19743498    -0.34100
C714        C  0.76394456  0.12721178  0.20408903     0.16300
O715        O  0.84181526  0.16980565  0.20787770    -0.26100
C716        C  0.84036960  0.12479606  0.21611768     0.06100
C717        C  0.79288364  0.09704327  0.21414671    -0.31000
O718        O  0.65153768  0.15285239  0.17809427    -0.22800
C719        C  0.65357767  0.19535348  0.16884331    -0.02800
C720        C  0.69866082  0.22649287  0.17152114    -0.17200
H721        H  0.80040662  0.24338803  0.18662875     0.20800
H722        H  0.69072711  0.08276146  0.20007690     0.19200
H723        H  0.78136652  0.05936425  0.21918863     0.19100
H724        H  0.71103385  0.26161112  0.16515322     0.15000
C725        C  0.22436116  0.18121865  0.18753223     0.30400
C726        C  0.26628849  0.21744035  0.18502797    -0.35900
C727        C  0.30679403  0.20120888  0.17456608     0.16400
C728        C  0.30607054  0.15268888  0.16713113     0.22200
C729        C  0.26429695  0.11676107  0.16956675    -0.34100
C730        C  0.22381916  0.13312549  0.17986803     0.16300
O731        O  0.18538360  0.18536607  0.19806143    -0.26100
C732        C  0.15913669  0.13962345  0.19685478     0.06100
C733        C  0.18145528  0.10599970  0.18568104    -0.31000
O734        O  0.34736995  0.14560329  0.15772759    -0.22800
C735        C  0.37543470  0.19002207  0.15916168    -0.02800
C736        C  0.35203330  0.22617569  0.16946004    -0.17200
H737        H  0.26789613  0.25506101  0.19108546     0.20800
H738        H  0.26374427  0.07830248  0.16397499     0.19200
H739        H  0.17154009  0.06495641  0.18352712     0.19100
H740        H  0.36555428  0.26566148  0.17232527     0.15000
C741        C  0.15625016  0.22681902  0.68623581     0.30400
C742        C  0.14115110  0.25457171  0.67257681    -0.35900
C743        C  0.17371420  0.29709772  0.66833619     0.16400
C744        C  0.21815843  0.31174852  0.67698293     0.22200
C745        C  0.23346914  0.28363592  0.69073429    -0.34100
C746        C  0.20073010  0.24060310  0.69499229     0.16300
O747        O  0.13111671  0.18577111  0.69210429    -0.26100
C748        C  0.15933802  0.17246445  0.70485295     0.06100
C749        C  0.20343257  0.20511266  0.70733922    -0.31000
O750        O  0.24270828  0.35304533  0.67069741    -0.22800
C751        C  0.21359055  0.36432715  0.65786607    -0.02800
C752        C  0.17026620  0.33085163  0.65581734    -0.17200
H753        H  0.10638025  0.24354734  0.66568539     0.20800
H754        H  0.26836788  0.29448656  0.69758466     0.19200
H755        H  0.23287924  0.20295643  0.71673176     0.19100
H756        H  0.14074296  0.33134886  0.64642065     0.15000
C757        C  0.20665629  0.77310542  0.69547018     0.30400
C758        C  0.24862704  0.74200277  0.68957816    -0.35900
C759        C  0.23391473  0.70193781  0.67885897     0.16400
C760        C  0.18160712  0.69319398  0.67434726     0.22200
C761        C  0.14000805  0.72409286  0.68017678    -0.34100
C762        C  0.15465869  0.76398904  0.69074267     0.16300
O763        O  0.21079432  0.81431192  0.70505389    -0.26100
C764        C  0.16071733  0.83137703  0.70628081     0.06100
C765        C  0.12444111  0.80163751  0.69762055    -0.31000
O766        O  0.17663745  0.65524349  0.66383081    -0.22800
C767        C  0.22633175  0.63924445  0.66147978    -0.02800
C768        C  0.26383710  0.66660930  0.67053463    -0.17200
H769        H  0.28978660  0.74915865  0.69285433     0.20800
H770        H  0.09907360  0.71819030  0.67644395     0.19200
H771        H  0.08195969  0.80795895  0.69622351     0.19100
H772        H  0.30675841  0.66203398  0.67059201     0.15000
C773        C  0.84649894  0.29502456  0.67065011     0.30400
C774        C  0.88248884  0.25304351  0.67080321    -0.35900
C775        C  0.88360372  0.22283605  0.68466328     0.16400
C776        C  0.85139084  0.23259399  0.69757385     0.22200
C777        C  0.81533794  0.27514535  0.69746211    -0.34100
C778        C  0.81444724  0.30588810  0.68353313     0.16300
O779        O  0.83908067  0.32792786  0.65878852    -0.26100
C780        C  0.80214868  0.36083883  0.66409815     0.06100
C781        C  0.78513140  0.34927060  0.67943237    -0.31000
O782        O  0.85985795  0.19875970  0.70930906    -0.22800
C783        C  0.89814594  0.16757577  0.70370594    -0.02800
C784        C  0.91426347  0.18086242  0.68847869    -0.17200
H785        H  0.90802842  0.24459544  0.66079927     0.20800
H786        H  0.79003375  0.28377813  0.70749868     0.19200
H787        H  0.75533040  0.36954792  0.68638924     0.19100
H788        H  0.94455607  0.16246508  0.68124106     0.15000
C789        C  0.85082895  0.77184464  0.69682150     0.30400
C790        C  0.81582433  0.72830328  0.69702183    -0.35900
C791        C  0.81656910  0.69580290  0.68350526     0.16400
C792        C  0.84898759  0.70599869  0.67063854     0.22200
C793        C  0.88382708  0.74922732  0.67044077    -0.34100
C794        C  0.88346240  0.78115553  0.68395496     0.16300
O795        O  0.85840869  0.80657576  0.70833859    -0.26100
C796        C  0.89662447  0.83802958  0.70269750     0.06100
C797        C  0.91341458  0.82404517  0.68758983    -0.31000
O798        O  0.84251511  0.67163873  0.65910530    -0.22800
C799        C  0.80597642  0.63838818  0.66467085    -0.02800
C800        C  0.78824294  0.65132828  0.67980058    -0.17200
H801        H  0.79023877  0.72005955  0.70704398     0.20800
H802        H  0.90970459  0.75725029  0.66046263     0.19200
H803        H  0.94416174  0.84218912  0.68041037     0.19100
H804        H  0.75790340  0.63171632  0.68678002     0.15000
C805        C  0.64116026  0.24792286  0.55326700     0.30400
C806        C  0.62361052  0.29286419  0.56132512    -0.35900
C807        C  0.66188714  0.31880897  0.57054052     0.16400
C808        C  0.71406356  0.30184193  0.57176940     0.22200
C809        C  0.73205366  0.25746315  0.56332780    -0.34100
C810        C  0.69359219  0.23138310  0.55403052     0.16300
O811        O  0.61032571  0.21442537  0.54568332    -0.26100
C812        C  0.64325495  0.17627531  0.54122199     0.06100
C813        C  0.69584472  0.18474849  0.54589741    -0.31000
O814        O  0.74198429  0.33019461  0.58197885    -0.22800
C815        C  0.70717745  0.36588128  0.58714677    -0.02800
C816        C  0.65681166  0.36069333  0.58044222    -0.17200
H817        H  0.58229782  0.30524036  0.56103463     0.20800
H818        H  0.77251485  0.24303789  0.56445239     0.19200
H819        H  0.72940494  0.15815813  0.54480508     0.19100
H820        H  0.62143426  0.38377518  0.58283435     0.15000
C821        C  0.66261080  0.77276615  0.55687633     0.30400
C822        C  0.70422155  0.73769212  0.56048570    -0.35900
C823        C  0.69354424  0.70046286  0.57242380     0.16400
C824        C  0.64528040  0.69790820  0.58026344     0.22200
C825        C  0.60376449  0.73284913  0.57666349    -0.34100
C826        C  0.61448882  0.77000828  0.56477132     0.16300
O827        O  0.66399464  0.81155901  0.54637287    -0.26100
C828        C  0.61617036  0.83377599  0.54767258     0.06100
C829        C  0.58378947  0.80949807  0.55889521    -0.31000
O830        O  0.64432522  0.66087972  0.59124939    -0.22800
C831        C  0.69248786  0.63932141  0.59036711    -0.02800
C832        C  0.72492982  0.66229580  0.57892781    -0.17200
H833        H  0.74236217  0.73962174  0.55453177     0.20800
H834        H  0.56595967  0.73155449  0.58282596     0.19200
H835        H  0.54360116  0.81981030  0.56236860     0.19100
H836        H  0.76584204  0.65272608  0.57606689     0.15000
C837        C  0.34258068  0.25865560  0.54218443     0.30400
C838        C  0.29969761  0.29290988  0.54525133    -0.35900
C839        C  0.30506688  0.32528992  0.55870586     0.16400
C840        C  0.34986310  0.32445606  0.56828138     0.22200
C841        C  0.39288067  0.29114583  0.56507298    -0.34100
C842        C  0.38723384  0.25851883  0.55182330     0.16300
O843        O  0.34402776  0.22088732  0.53135725    -0.26100
C844        C  0.39013929  0.19657511  0.53425126     0.06100
C845        C  0.41871832  0.21871257  0.54671138    -0.31000
O846        O  0.34577103  0.35577815  0.58063472    -0.22800
C847        C  0.29771594  0.37717674  0.57905275    -0.02800
C848        C  0.27038880  0.35972980  0.56562708    -0.17200
H849        H  0.26377443  0.29263503  0.53809841     0.20800
H850        H  0.42748507  0.28922964  0.57276728     0.19200
H851        H  0.45585789  0.20518473  0.55190255     0.19100
H852        H  0.23063985  0.37034232  0.56172764     0.15000
C853        C  0.37344100  0.77982293  0.55440114     0.30400
C854        C  0.38895875  0.74496471  0.56645602    -0.35900
C855        C  0.35100283  0.70741392  0.57097497     0.16400
C856        C  0.30102580  0.70415947  0.56411649     0.22200
C857        C  0.28578221  0.73862734  0.55178058    -0.34100
C858        C  0.32397370  0.77645325  0.54721745     0.16300
O859        O  0.40149249  0.82021991  0.54930340    -0.26100
C860        C  0.37018183  0.84308460  0.53857551     0.06100
C861        C  0.32142445  0.81746305  0.53660428    -0.31000
O862        O  0.27094605  0.66769566  0.57090016    -0.22800
C863        C  0.30225670  0.64773679  0.58221694    -0.02800
C864        C  0.35266042  0.67050788  0.58267165    -0.17200
H865        H  0.42742523  0.74803619  0.57226040     0.20800
H866        H  0.24647188  0.73705905  0.54645634     0.19200
H867        H  0.28818658  0.82897048  0.52914202     0.19100
H868        H  0.38512481  0.66202663  0.59078076     0.15000
C869        C  0.23613969  0.24816848  0.29583529     0.30400
C870        C  0.26055820  0.29836764  0.29596669    -0.35900
C871        C  0.25940735  0.32552592  0.31050112     0.16400
C872        C  0.23591948  0.30443964  0.32387603     0.22200
C873        C  0.21214499  0.25437610  0.32378786    -0.34100
C874        C  0.21342071  0.22732604  0.30936463     0.16300
O875        O  0.22716501  0.21832690  0.28326348    -0.26100
C876        C  0.19947175  0.17746386  0.28895700     0.06100
C877        C  0.18963437  0.18123462  0.30508570    -0.31000
O878        O  0.23869311  0.33618400  0.33614490    -0.22800
C879        C  0.26425571  0.37859376  0.33072141    -0.02800
C880        C  0.27829765  0.37426030  0.31477856    -0.17200
H881        H  0.27774285  0.31564873  0.28539296     0.20800
H882        H  0.19287588  0.23812084  0.33418877     0.19200
H883        H  0.16401421  0.15637363  0.31225137     0.19100
H884        H  0.30030227  0.40218588  0.30757125     0.15000
C885        C  0.24332150  0.73530446  0.32753438     0.30400
C886        C  0.21861057  0.78491251  0.32766906    -0.35900
C887        C  0.22285360  0.81475674  0.31372653     0.16400
C888        C  0.24932960  0.79698558  0.30045823     0.22200
C889        C  0.27456449  0.74727854  0.30037113    -0.34100
C890        C  0.27029928  0.71727741  0.31438642     0.16300
O891        O  0.24324248  0.70092792  0.33926046    -0.26100
C892        C  0.27029532  0.65986114  0.33365808     0.06100
C893        C  0.28825326  0.66776117  0.31818766    -0.31000
O894        O  0.24238906  0.82861108  0.28812269    -0.22800
C895        C  0.21213040  0.86764294  0.29368558    -0.02800
C896        C  0.19865728  0.86078136  0.30951643    -0.17200
H897        H  0.19626308  0.79865530  0.33781278     0.20800
H898        H  0.29435496  0.73225117  0.28992830     0.19200
H899        H  0.31172961  0.64132595  0.31095672     0.19100
H900        H  0.17017070  0.88322777  0.31637154     0.15000
C901        C  0.37648361  0.31817496  0.42144001     0.30400
C902        C  0.41977213  0.28633210  0.42574408    -0.35900
C903        C  0.40964887  0.24790524  0.43730726     0.16400
C904        C  0.36046066  0.24141972  0.44437652     0.22200
C905        C  0.31705127  0.27379431  0.44016262    -0.34100
C906        C  0.32704501  0.31200871  0.42839087     0.16300
O907        O  0.37678885  0.35467456  0.41030430    -0.26100
C908        C  0.32693991  0.37235530  0.41003517     0.06100
C909        C  0.29401778  0.34734024  0.42103184    -0.31000
O910        O  0.35955817  0.20079863  0.45427468    -0.22800
C911        C  0.40870260  0.18108894  0.45336045    -0.02800
C912        C  0.44152878  0.20901211  0.44306770    -0.17200
H913        H  0.45830871  0.29017719  0.42009674     0.20800
H914        H  0.27792900  0.26849722  0.44532858     0.19200
H915        H  0.25190423  0.35369760  0.42306190     0.19100
H916        H  0.48247887  0.20077674  0.43988222     0.15000
C917        C  0.38930082  0.75981977  0.44667673     0.30400
C918        C  0.40701173  0.71689193  0.43772586    -0.35900
C919        C  0.36761089  0.68885069  0.42956050     0.16400
C920        C  0.31418316  0.70192778  0.43015022     0.22200
C921        C  0.29621990  0.74428746  0.43948291    -0.34100
C922        C  0.33586986  0.77256349  0.44770432     0.16300
O923        O  0.42023932  0.79495231  0.45351029    -0.26100
C924        C  0.38654859  0.83046203  0.45924742     0.06100
C925        C  0.33330356  0.81849278  0.45619737    -0.31000
O926        O  0.28501632  0.67291911  0.42042453    -0.22800
C927        C  0.32045881  0.64096073  0.41371217    -0.02800
C928        C  0.37228475  0.64888396  0.41897185    -0.17200
H929        H  0.44897692  0.70772205  0.43654360     0.20800
H930        H  0.25469724  0.75590097  0.43971252     0.19200
H931        H  0.29853898  0.84247647  0.45857261     0.19100
H932        H  0.40829584  0.62945403  0.41502187     0.15000
C933        C  0.94418631  0.23712818  0.32004953     0.30400
C934        C  0.96000498  0.28671902  0.32585556    -0.35900
C935        C  0.92069125  0.31577375  0.33374103     0.16400
C936        C  0.86950192  0.29699488  0.33587673     0.22200
C937        C  0.85381173  0.24716891  0.33017424    -0.34100
C938        C  0.89312158  0.21807512  0.32224873     0.16300
O939        O  0.97327095  0.20556911  0.31124822    -0.26100
C940        C  0.94084581  0.16540986  0.30785708     0.06100
C941        C  0.89045569  0.17065572  0.31451535    -0.31000
O942        O  0.83976833  0.32976084  0.34411924    -0.22800
C943        C  0.87207943  0.37033488  0.34718808    -0.02800
C944        C  0.92300617  0.36387257  0.34098906    -0.17200
H945        H  0.99995444  0.30192305  0.32410786     0.20800
H946        H  0.81367119  0.23227899  0.33174544     0.19200
H947        H  0.85590991  0.14554693  0.31283914     0.19100
H948        H  0.95734940  0.38943157  0.34242095     0.15000
C949        C  0.90069983  0.79602967  0.32284282     0.30400
C950        C  0.85807076  0.77127502  0.33078007    -0.35900
C951        C  0.86981461  0.72268828  0.33821071     0.16400
C952        C  0.91982107  0.69989062  0.33773259     0.22200
C953        C  0.96223885  0.72469283  0.32996933    -0.34100
C954        C  0.95065582  0.77318688  0.32273848     0.16300
O955        O  0.89884163  0.84035485  0.31440064    -0.26100
C956        C  0.94849910  0.84561890  0.30898827     0.06100
C957        C  0.98218163  0.80521694  0.31398962    -0.31000
O958        O  0.92226940  0.65457374  0.34544294    -0.22800
C959        C  0.87325733  0.64817256  0.35106231    -0.02800
C960        C  0.83886310  0.68928210  0.34697567    -0.17200
H961        H  0.81855200  0.78839373  0.33105360     0.20800
H962        H  0.00161553  0.70726225  0.32953442     0.19200
H963        H  0.02364460  0.79891410  0.31099521     0.19100
H964        H  0.79742493  0.69405855  0.35023087     0.15000
C965        C  0.70632947  0.29347456  0.42622212     0.30400
C966        C  0.67073375  0.25085694  0.42640564    -0.35900
C967        C  0.67248684  0.21878420  0.43994006     0.16400
C968        C  0.70701293  0.22748855  0.45246631     0.22200
C969        C  0.74258932  0.27041642  0.45230037    -0.34100
C970        C  0.74055237  0.30291932  0.43878071     0.16300
O971        O  0.71190835  0.32799080  0.41463364    -0.26100
C972        C  0.74968552  0.36037313  0.41992498     0.06100
C973        C  0.76907354  0.34685883  0.43485287    -0.31000
O974        O  0.70149456  0.19207966  0.46392024    -0.22800
C975        C  0.66284806  0.16067246  0.45856273    -0.02800
C976        C  0.64341165  0.17550249  0.44375761    -0.17200
H977        H  0.64357049  0.24319946  0.41666896     0.20800
H978        H  0.76980234  0.27802699  0.46202152     0.19200
H979        H  0.80033966  0.36603550  0.44160443     0.19100
H980        H  0.61207337  0.15706107  0.43683500     0.15000
C981        C  0.71245369  0.70166877  0.43024675     0.30400
C982        C  0.67796157  0.74485980  0.42975179    -0.35900
C983        C  0.67095237  0.77159862  0.44403588     0.16400
C984        C  0.69648099  0.75753477  0.45794898     0.22200
C985        C  0.73081912  0.71357365  0.45850076    -0.34100
C986        C  0.73749095  0.68624907  0.44412346     0.16300
O987        O  0.72463104  0.67165370  0.41812280    -0.26100
C988        C  0.75751481  0.63596128  0.42422305     0.06100
C989        C  0.76714878  0.64279422  0.44037693    -0.31000
O990        O  0.68450783  0.78959070  0.46978867    -0.22800
C991        C  0.65062054  0.82388676  0.46323243    -0.02800
C992        C  0.64067249  0.81432926  0.44731638    -0.17200
H993        H  0.65798699  0.75687236  0.41893041     0.20800
H994        H  0.75093720  0.70165984  0.46930605     0.19200
H995        H  0.79243891  0.61944746  0.44809877     0.19100
H996        H  0.61522829  0.83625805  0.43926124     0.15000
loop_ 
_geom_bond_atom_site_label_1 
_geom_bond_atom_site_label_2 
_geom_bond_distance 
_geom_bond_site_symmetry_2 
_ccdc_geom_bond_type 
N1            C6   1.352       .  A
N1            C5   1.353       .  A
N1           H33   1.038       .  S
N2            C9   1.350       .  A
N2           C10   1.350       .  A
N3            C8   1.353       .  A
N3            C7   1.353       .  A
N3           H34   1.039       .  S
N4           C11   1.352       .  A
N4           C12   1.353       .  A
C5           C13   1.387       .  A
C5           C21   1.412       .  A
C6           C22   1.414       .  A
C6           C14   1.388       .  A
C7           C15   1.385       .  A
C7           C24   1.410       .  A
C8           C23   1.415       .  A
C8           C16   1.389       .  A
C9           C21   1.409       .  A
C9           C17   1.387       .  A
C10          C24   1.407       .  A
C10          C18   1.385       .  A
C11          C19   1.386       .  A
C11          C22   1.415       .  A
C12          C20   1.386       .  A
C12          C23   1.415       .  A
C13          C14   1.374       .  A
C13          H25   1.083       .  S
C14          H26   1.082       .  S
C15          C16   1.372       .  A
C15          H27   1.082       .  S
C16          H28   1.082       .  S
C17          C18   1.373       .  A
C17          H29   1.082       .  S
C18          H30   1.082       .  S
C19          C20   1.376       .  A
C19          H31   1.082       .  S
C20          H32   1.082       .  S
C21         C988   1.475       .  S
C22         C959   1.482       .  S
C23         C943   1.483       .  S
C24         C972   1.474       .  S
N35          C40   1.357       .  A
N35          C39   1.352       .  A
N35          H67   1.040       .  S
N36          C43   1.353       .  A
N36          C44   1.354       .  A
N37          C42   1.355       .  A
N37          C41   1.353       .  A
N37          H68   1.040       .  S
N38          C45   1.349       .  A
N38          C46   1.347       .  A
C39          C47   1.387       .  A
C39          C55   1.414       .  A
C40          C56   1.417       .  A
C40          C48   1.388       .  A
C41          C49   1.387       .  A
C41          C58   1.414       .  A
C42          C57   1.415       .  A
C42          C50   1.387       .  A
C43          C55   1.416       .  A
C43          C51   1.386       .  A
C44          C58   1.416       .  A
C44          C52   1.386       .  A
C45          C53   1.387       .  A
C45          C56   1.409       .  A
C46          C54   1.386       .  A
C46          C57   1.407       .  A
C47          C48   1.373       .  A
C47          H59   1.083       .  S
C48          H60   1.082       .  S
C49          C50   1.374       .  A
C49          H61   1.082       .  S
C50          H62   1.082       .  S
C51          C52   1.378       .  A
C51          H63   1.081       .  S
C52          H64   1.082       .  S
C53          C54   1.373       .  A
C53          H65   1.081       .  S
C54          H66   1.082       .  S
C55         C879   1.486       .  S
C56         C908   1.481       .  S
C57         C927   1.475       .  S
C58         C892   1.488       .  S
C69          N87   1.353       .  A
C69         C106   1.446       .  S
C69         C924   1.463       .  S
N70          N87   1.330       .  A
N70          N92   1.320       .  A
N70        Co107   2.098   1_565  S
C71          N96   1.349       .  A
C71         H116   1.081       .  S
C71         C109   1.467       .  S
H72         C113   1.081       .  S
C73          N97   1.334       .  A
C73         H102   1.081       .  S
C73          C77   1.449       .  S
Co74         N92   2.069       .  S
Co74         N82   2.078       .  S
Co74        N114   2.085   1_565  S
Co74         N90   2.063   1_565  S
Co74       Cl118   2.420   1_565  S
N75         C113   1.346       .  A
N75          N82   1.320       .  A
N75         Co76   2.089       .  S
Co76         N79   2.097       .  S
Co76         N96   2.104   1_565  S
Co76         N83   2.089   1_565  S
Co76       Cl118   2.480   1_565  S
C77         N115   1.353       .  A
C77         C828   1.465       .  S
N78          N85   1.319       .  A
N78         N108   1.319       .  A
N78        Co111   2.072   1_565  S
N79          N97   1.320       .  A
N79         N115   1.329       .  A
N80         C109   1.341       .  A
N80          N90   1.318       .  A
H81         C106   1.081       .  S
N82         N103   1.320       .  A
N83         N101   1.320       .  A
N83          N88   1.329       .  A
C84          N88   1.352       .  A
C84         C112   1.447       .  S
C84         C812   1.461       .  S
N85         C100   1.349       .  A
N85        Co107   2.094   1_565  S
C86         N114   1.338       .  A
C86         H120   1.081       .  S
C86          C89   1.455       .  S
C89         N110   1.351       .  A
C89         C911   1.469       .  S
N90          N96   1.320       .  A
N91         C117   1.349       .  A
N91          N93   1.319       .  A
N91        Co107   2.100       .  S
N92         C106   1.333       .  A
N93         N121   1.318       .  A
N93        Co111   2.066       .  S
H94         C117   1.081       .  S
H95         C112   1.081       .  S
N97        Co111   2.068   1_565  S
N98         N110   1.328       .  A
N98         N114   1.320       .  A
N98        Co107   2.090       .  S
C99         N103   1.346       .  A
C99         C113   1.461       .  S
C99         C991   1.466       .  S
C100        H104   1.081       .  S
C100        C119   1.465       .  S
N101        C112   1.334       .  A
N101       Co111   2.071       .  S
C105        N121   1.343       .  A
C105        C117   1.465       .  S
C105        C844   1.468       .  S
Co107      Cl118   2.484       .  S
N108        C119   1.342       .  A
C109        C975   1.466       .  S
Co111      Cl118   2.417       .  S
C119        C860   1.465       .  S
N122        C127   1.352       .  A
N122        C126   1.351       .  A
N122        H154   1.038       .  S
N123        C130   1.353       .  A
N123        C131   1.351       .  A
N124        C129   1.355       .  A
N124        C128   1.352       .  A
N124        H155   1.038       .  S
N125        C132   1.350       .  A
N125        C133   1.350       .  A
C126        C134   1.386       .  A
C126        C142   1.411       .  A
C127        C143   1.414       .  A
C127        C135   1.389       .  A
C128        C136   1.388       .  A
C128        C145   1.415       .  A
C129        C144   1.415       .  A
C129        C137   1.387       .  A
C130        C142   1.412       .  A
C130        C138   1.385       .  A
C131        C145   1.414       .  A
C131        C139   1.387       .  A
C132        C140   1.387       .  A
C132        C143   1.410       .  A
C133        C141   1.386       .  A
C133        C144   1.411       .  A
C134        C135   1.373       .  A
C134        H146   1.083       .  S
C135        H147   1.082       .  S
C136        C137   1.375       .  A
C136        H148   1.083       .  S
C137        H149   1.082       .  S
C138        C139   1.373       .  A
C138        H150   1.082       .  S
C139        H151   1.082       .  S
C140        C141   1.371       .  A
C140        H152   1.082       .  S
C141        H153   1.082       .  S
C142        C799   1.480       .  S
C143        C831   1.473       .  S
C144        C815   1.480       .  S
C145        C780   1.475       .  S
N156        C161   1.355       .  A
N156        C160   1.356       .  A
N156        H188   1.040       .  S
N157        C164   1.350       .  A
N157        C165   1.351       .  A
N158        C163   1.353       .  A
N158        C162   1.354       .  A
N158        H189   1.038       .  S
N159        C166   1.351       .  A
N159        C167   1.351       .  A
C160        C168   1.389       .  A
C160        C176   1.421       .  A
C161        C177   1.416       .  A
C161        C169   1.385       .  A
C162        C170   1.389       .  A
C162        C179   1.420       .  A
C163        C178   1.416       .  A
C163        C171   1.387       .  A
C164        C176   1.413       .  A
C164        C172   1.388       .  A
C165        C179   1.413       .  A
C165        C173   1.386       .  A
C166        C174   1.386       .  A
C166        C177   1.410       .  A
C167        C175   1.388       .  A
C167        C178   1.414       .  A
C168        C169   1.375       .  A
C168        H180   1.082       .  S
C169        H181   1.082       .  S
C170        C171   1.373       .  A
C170        H182   1.081       .  S
C171        H183   1.081       .  S
C172        C173   1.371       .  A
C172        H184   1.081       .  S
C173        H185   1.082       .  S
C174        C175   1.373       .  A
C174        H186   1.082       .  S
C175        H187   1.082       .  S
C176        C847   1.482       .  S
C177        C751   1.482       .  S
C178        C767   1.477       .  S
C179        C863   1.482       .  S
C190        N208   1.340       .  A
C190        C227   1.472       .  S
C190        C940   1.468       .  S
N191        N208   1.318       .  A
N191        N213   1.323       .  A
N191       Co228   2.077   1_655  S
C192        N217   1.354       .  A
C192        H237   1.081       .  S
C192        C230   1.474       .  S
H193        C234   1.081       .  S
C194        N218   1.349       .  A
C194        H223   1.081       .  S
C194        C198   1.467       .  S
Co195       N213   2.110       .  S
Co195       N203   2.103   1_545  S
Co195       N235   2.066       .  S
Co195       N211   2.090   1_545  S
Co195      Cl239   2.456   1_655  S
N196        C234   1.328       .  A
N196        N203   1.318   1_455  A
N196       Co197   2.064       .  S
Co197       N200   2.071       .  S
Co197       N217   2.117   1_455  S
Co197       N204   2.094       .  S
Co197      Cl239   2.455   1_565  S
C198        N236   1.341       .  A
C198        C895   1.464       .  S
N199        N206   1.320       .  A
N199        N229   1.330       .  A
N199       Co232   2.095       .  S
N200        N218   1.321       .  A
N200        N236   1.319       .  A
N201        C230   1.345       .  A
N201        N211   1.322       .  A
H202        C227   1.081       .  S
N203        N224   1.334       .  A
N204        N222   1.317       .  A
N204        N209   1.331       .  A
C205        N209   1.359       .  A
C205        C233   1.451       .  S
C205        C703   1.476       .  S
N206        C221   1.335       .  A
N206       Co228   2.070       .  S
C207        N235   1.329       .  A
C207        H241   1.081       .  S
C207        C210   1.446       .  S
C210        N231   1.359       .  A
C210        C716   1.474       .  S
N211        N217   1.323       .  A
N212        C238   1.354       .  A
N212        N214   1.321       .  A
N212       Co228   2.111       .  S
N213        C227   1.351       .  A
N214        N242   1.315       .  A
N214       Co232   2.061       .  S
H215        C238   1.081       .  S
H216        C233   1.082       .  S
N218       Co232   2.102   1_565  S
N219        N231   1.334       .  A
N219        N235   1.321       .  A
N219       Co228   2.109   1_655  S
C220        N224   1.360       .  A
C220        C234   1.446   1_655  S
C220        C956   1.475       .  S
C221        H225   1.082       .  S
C221        C240   1.446       .  S
N222        C233   1.328       .  A
N222       Co232   2.063   1_565  S
C226        N242   1.338       .  A
C226        C238   1.476       .  S
C226        C732   1.470       .  S
Co228      Cl239   2.462       .  S
N229        C240   1.354       .  A
C230        C687   1.482       .  S
Co232      Cl239   2.431       .  S
C240        C876   1.463       .  S
C243        N261   1.350       .  A
C243        C280   1.452       .  S
C243        C636   1.463       .  S
N244        N261   1.327       .  A
N244        N266   1.321       .  A
N244       Co281   2.087   1_656  S
C245        N270   1.347       .  A
C245        H290   1.081       .  S
C245        C283   1.463       .  S
H246        C287   1.081       .  S
C247        N271   1.334       .  A
C247        H276   1.081       .  S
C247        C251   1.453       .  S
Co248       N266   2.081   1_455  S
Co248       N256   2.075   1_455  S
Co248       N288   2.069       .  S
Co248       N264   2.081       .  S
Co248      Cl292   2.425   1_556  S
N249        C287   1.345       .  A
N249        N256   1.320       .  A
N249       Co250   2.091   1_656  S
Co250       N253   2.097   1_455  S
Co250       N270   2.097   1_554  S
Co250       N257   2.096       .  S
Co250      Cl292   2.477       .  S
C251        N289   1.353       .  A
C251        C572   1.468       .  S
N252        N259   1.319       .  A
N252        N282   1.321       .  A
N252       Co285   2.073   1_655  S
N253        N271   1.321       .  A
N253        N289   1.329       .  A
N254        C283   1.345       .  A
N254        N264   1.321       .  A
H255        C280   1.081       .  S
N256        N277   1.321       .  A
N257        N275   1.320       .  A
N257        N262   1.330       .  A
C258        N262   1.354       .  A
C258        C286   1.450       .  S
C258        C556   1.467       .  S
N259        C274   1.349       .  A
N259       Co281   2.101   1_655  S
C260        N288   1.334       .  A
C260        H294   1.081       .  S
C260        C263   1.446       .  S
C263        N284   1.351       .  A
C263        C620   1.458       .  S
N264        N270   1.320       .  A
N265        C291   1.348       .  A
N265        N267   1.320       .  A
N265       Co281   2.093       .  S
N266        C280   1.337       .  A
N267        N295   1.321       .  A
N267       Co285   2.082       .  S
H268        C291   1.081       .  S
H269        C286   1.081       .  S
N271       Co285   2.074   1_655  S
N272        N284   1.328       .  A
N272        N288   1.320       .  A
N272       Co281   2.087   1_556  S
C273        N277   1.345       .  A
C273        C287   1.462       .  S
C273        C668   1.465       .  S
C274        H278   1.081       .  S
C274        C293   1.467       .  S
N275        C286   1.332       .  A
N275       Co285   2.066       .  S
C279        N295   1.346       .  A
C279        C291   1.464       .  S
C279        C591   1.468       .  S
Co281      Cl292   2.477       .  S
N282        C293   1.345       .  A
C283        C655   1.470       .  S
Co285      Cl292   2.425       .  S
C293        C604   1.471       .  S
N296        C301   1.352       .  A
N296        C300   1.355       .  A
N296        H328   1.041       .  S
N297        C304   1.349       .  A
N297        C305   1.347       .  A
N298        C303   1.354       .  A
N298        C302   1.353       .  A
N298        H329   1.040       .  S
N299        C306   1.352       .  A
N299        C307   1.354       .  A
C300        C308   1.385       .  A
C300        C316   1.411       .  A
C301        C317   1.415       .  A
C301        C309   1.388       .  A
C302        C310   1.387       .  A
C302        C319   1.412       .  A
C303        C318   1.416       .  A
C303        C311   1.388       .  A
C304        C316   1.405       .  A
C304        C312   1.386       .  A
C305        C319   1.406       .  A
C305        C313   1.387       .  A
C306        C314   1.385       .  A
C306        C317   1.413       .  A
C307        C315   1.386       .  A
C307        C318   1.417       .  A
C308        C309   1.375       .  A
C308        H320   1.082       .  S
C309        H321   1.082       .  S
C310        C311   1.374       .  A
C310        H322   1.082       .  S
C311        H323   1.082       .  S
C312        C313   1.372       .  A
C312        H324   1.083       .  S
C313        H325   1.082       .  S
C314        C315   1.375       .  A
C314        H326   1.082       .  S
C315        H327   1.081       .  S
C316        C639   1.476       .  S
C317        C540   1.487       .  S
C318        C527   1.495       .  S
C319        C623   1.470       .  S
N330        C335   1.357       .  A
N330        C334   1.356       .  A
N330        H362   1.039       .  S
N331        C338   1.353       .  A
N331        C339   1.353       .  A
N332        C337   1.355       .  A
N332        C336   1.352       .  A
N332        H363   1.040       .  S
N333        C340   1.350       .  A
N333        C341   1.351       .  A
C334        C342   1.386       .  A
C334        C350   1.419       .  A
C335        C351   1.421       .  A
C335        C343   1.388       .  A
C336        C344   1.386       .  A
C336        C353   1.414       .  A
C337        C352   1.416       .  A
C337        C345   1.389       .  A
C338        C350   1.415       .  A
C338        C346   1.385       .  A
C339        C353   1.416       .  A
C339        C347   1.387       .  A
C340        C348   1.387       .  A
C340        C351   1.412       .  A
C341        C349   1.386       .  A
C341        C352   1.412       .  A
C342        C343   1.369       .  A
C342        H354   1.082       .  S
C343        H355   1.081       .  S
C344        C345   1.371       .  A
C344        H356   1.082       .  S
C345        H357   1.081       .  S
C346        C347   1.376       .  A
C346        H358   1.082       .  S
C347        H359   1.082       .  S
C348        C349   1.374       .  A
C348        H360   1.082       .  S
C349        H361   1.082       .  S
C350        C511   1.492       .  S
C351        C671   1.483       .  S
C352        C652   1.484       .  S
C353        C495   1.489       .  S
C364        N382   1.356       .  A
C364        C401   1.451       .  S
C364        C796   1.472       .  S
N365        N382   1.331       .  A
N365        N387   1.318       .  A
N365       Co402   2.104   1_565  S
C366        N391   1.353       .  A
C366        H411   1.082       .  S
C366        C404   1.471       .  S
H367        C408   1.081       .  S
C368        N392   1.344       .  A
C368        H397   1.082       .  S
C368        C372   1.467       .  S
Co369       N387   2.061   1_445  S
Co369       N377   2.059   1_545  S
Co369       N409   2.056   1_455  S
Co369       N385   2.061       .  S
Co369      Cl413   2.438       .  S
N370        C408   1.349       .  A
N370        N377   1.317       .  A
N370       Co371   2.096   1_565  S
Co371       N374   2.088   1_545  S
Co371       N391   2.103       .  S
Co371       N378   2.082       .  S
Co371      Cl413   2.458       .  S
C372        N410   1.347       .  A
C372        C524   1.472       .  S
N373        N380   1.322       .  A
N373        N403   1.327       .  A
N373       Co406   2.098   1_655  S
N374        N392   1.323       .  A
N374        N410   1.323       .  A
N375        C404   1.341       .  A
N375        N385   1.317       .  A
H376        C401   1.081       .  S
N377        N398   1.318       .  A
N378        N396   1.322       .  A
N378        N383   1.322       .  A
C379        N383   1.348       .  A
C379        C407   1.463       .  S
C379        C492   1.469       .  S
N380        C395   1.338       .  A
N380       Co402   2.080   1_565  S
C381        N409   1.331       .  A
C381        H415   1.081       .  S
C381        C384   1.449       .  S
C384        N405   1.354       .  A
C384        C783   1.465       .  S
N385        N391   1.318       .  A
N386        C412   1.341       .  A
N386        N388   1.322       .  A
N386       Co402   2.090       .  S
N387        C401   1.333       .  A
N388        N416   1.326       .  A
N388       Co406   2.098   1_645  S
H389        C412   1.082       .  S
H390        C407   1.082       .  S
N392       Co406   2.102       .  S
N393        N405   1.330       .  A
N393        N409   1.317       .  A
N393       Co402   2.092       .  S
C394        N398   1.343       .  A
C394        C408   1.465       .  S
C394        C764   1.465       .  S
C395        H399   1.082       .  S
C395        C414   1.458       .  S
N396        C407   1.344       .  A
N396       Co406   2.094   1_545  S
C400        N416   1.353       .  A
C400        C412   1.461       .  S
C400        C508   1.473       .  S
Co402      Cl413   2.454   1_655  S
N403        C414   1.353       .  A
C404        C748   1.469       .  S
Co406      Cl413   2.450   1_565  S
C414        C543   1.472       .  S
N417        C422   1.356       .  A
N417        C421   1.353       .  A
N417        H449   1.039       .  S
N418        C425   1.350       .  A
N418        C426   1.352       .  A
N419        C424   1.351       .  A
N419        C423   1.352       .  A
N419        H450   1.040       .  S
N420        C427   1.353       .  A
N420        C428   1.351       .  A
C421        C429   1.387       .  A
C421        C437   1.417       .  A
C422        C438   1.418       .  A
C422        C430   1.387       .  A
C423        C431   1.387       .  A
C423        C440   1.411       .  A
C424        C439   1.411       .  A
C424        C432   1.387       .  A
C425        C437   1.413       .  A
C425        C433   1.388       .  A
C426        C440   1.408       .  A
C426        C434   1.384       .  A
C427        C435   1.387       .  A
C427        C438   1.415       .  A
C428        C436   1.386       .  A
C428        C439   1.411       .  A
C429        C430   1.380       .  A
C429        H441   1.082       .  S
C430        H442   1.082       .  S
C431        C432   1.376       .  A
C431        H443   1.082       .  S
C432        H444   1.082       .  S
C433        C434   1.372       .  A
C433        H445   1.082       .  S
C434        H446   1.082       .  S
C435        C436   1.372       .  A
C435        H447   1.082       .  S
C436        H448   1.082       .  S
C437        C719   1.482       .  S
C438        C735   1.488       .  S
C439        C559   1.472       .  S
C440        C575   1.481       .  S
N451        C456   1.352       .  A
N451        C455   1.355       .  A
N451        H483   1.040       .  S
N452        C459   1.353       .  A
N452        C460   1.352       .  A
N453        C458   1.358       .  A
N453        C457   1.359       .  A
N453        H484   1.040       .  S
N454        C461   1.355       .  A
N454        C462   1.356       .  A
C455        C463   1.386       .  A
C455        C471   1.413       .  A
C456        C472   1.414       .  A
C456        C464   1.388       .  A
C457        C465   1.388       .  A
C457        C474   1.425       .  A
C458        C473   1.424       .  A
C458        C466   1.386       .  A
C459        C471   1.412       .  A
C459        C467   1.384       .  A
C460        C474   1.417       .  A
C460        C468   1.388       .  A
C461        C469   1.385       .  A
C461        C472   1.416       .  A
C462        C470   1.387       .  A
C462        C473   1.419       .  A
C463        C464   1.377       .  A
C463        H475   1.082       .  S
C464        H476   1.082       .  S
C465        C466   1.378       .  A
C465        H477   1.081       .  S
C466        H478   1.082       .  S
C467        C468   1.371       .  A
C467        H479   1.082       .  S
C468        H480   1.082       .  S
C469        C470   1.373       .  A
C469        H481   1.082       .  S
C470        H482   1.082       .  S
C471        C588   1.488       .  S
C472        C607   1.483       .  S
C473        C684   1.501       .  S
C474        C700   1.500       .  S
C485        C490   1.381       .  A
C485        C486   1.405       .  A
C485        O491   1.322       .  A
C486        C487   1.405       .  A
C486        H497   1.082       .  S
C487        C496   1.360       .  A
C487        C488   1.380       .  A
C488        C489   1.401       .  A
C488        O494   1.319       .  A
C489        C490   1.401       .  A
C489        H498   1.082       .  S
C490        C493   1.358       .  A
O491        C492   1.332       .  A
C492        C493   1.389       .  A
C493        H499   1.083       .  S
O494        C495   1.330       .  A
C495        C496   1.396       .  A
C496        H500   1.083       .  S
C501        C506   1.381       .  A
C501        C502   1.402       .  A
C501        O507   1.319       .  A
C502        C503   1.402       .  A
C502        H513   1.082       .  S
C503        C512   1.358       .  A
C503        C504   1.379       .  A
C504        C505   1.407       .  A
C504        O510   1.324       .  A
C505        C506   1.408       .  A
C505        H514   1.082       .  S
C506        C509   1.365       .  A
O507        C508   1.330       .  A
C508        C509   1.394       .  A
C509        H515   1.082       .  S
O510        C511   1.334       .  A
C511        C512   1.392       .  A
C512        H516   1.082       .  S
C517        C522   1.380       .  A
C517        C518   1.405       .  A
C517        O523   1.319       .  A
C518        C519   1.403       .  A
C518        H529   1.082       .  S
C519        C528   1.364       .  A
C519        C520   1.378       .  A
C520        C521   1.404       .  A
C520        O526   1.318       .  A
C521        C522   1.403       .  A
C521        H530   1.082       .  S
C522        C525   1.364       .  A
O523        C524   1.332       .  A
C524        C525   1.391       .  A
C525        H531   1.082       .  S
O526        C527   1.333       .  A
C527        C528   1.395       .  A
C528        H532   1.082       .  S
C533        C538   1.380       .  A
C533        C534   1.403       .  A
C533        O539   1.319       .  A
C534        C535   1.403       .  A
C534        H545   1.082       .  S
C535        C544   1.360       .  A
C535        C536   1.380       .  A
C536        C537   1.403       .  A
C536        O542   1.320       .  A
C537        C538   1.403       .  A
C537        H546   1.082       .  S
C538        C541   1.360       .  A
O539        C540   1.331       .  A
C540        C541   1.394       .  A
C541        H547   1.082       .  S
O542        C543   1.331       .  A
C543        C544   1.392       .  A
C544        H548   1.082       .  S
C549        C554   1.380       .  A
C549        C550   1.406       .  A
C549        O555   1.324       .  A
C550        C551   1.407       .  A
C550        H561   1.082       .  S
C551        C560   1.364       .  A
C551        C552   1.382       .  A
C552        C553   1.396       .  A
C552        O558   1.314       .  A
C553        C554   1.396       .  A
C553        H562   1.083       .  S
C554        C557   1.351       .  A
O555        C556   1.332       .  A
C556        C557   1.388       .  A
C557        H563   1.082       .  S
O558        C559   1.326       .  A
C559        C560   1.391       .  A
C560        H564   1.082       .  S
C565        C570   1.381       .  A
C565        C566   1.406       .  A
C565        O571   1.324       .  A
C566        C567   1.407       .  A
C566        H577   1.082       .  S
C567        C576   1.364       .  A
C567        C568   1.381       .  A
C568        C569   1.398       .  A
C568        O574   1.316       .  A
C569        C570   1.398       .  A
C569        H578   1.082       .  S
C570        C573   1.354       .  A
O571        C572   1.332       .  A
C572        C573   1.388       .  A
C573        H579   1.082       .  S
O574        C575   1.328       .  A
C575        C576   1.393       .  A
C576        H580   1.082       .  S
C581        C586   1.380       .  A
C581        C582   1.411       .  A
C581        O587   1.324       .  A
C582        C583   1.410       .  A
C582        H593   1.082       .  S
C583        C592   1.371       .  A
C583        C584   1.381       .  A
C584        C585   1.398       .  A
C584        O590   1.313       .  A
C585        C586   1.397       .  A
C585        H594   1.082       .  S
C586        C589   1.356       .  A
O587        C588   1.335       .  A
C588        C589   1.389       .  A
C589        H595   1.083       .  S
O590        C591   1.327       .  A
C591        C592   1.394       .  A
C592        H596   1.082       .  S
C597        C602   1.380       .  A
C597        C598   1.401       .  A
C597        O603   1.315       .  A
C598        C599   1.400       .  A
C598        H609   1.082       .  S
C599        C608   1.360       .  A
C599        C600   1.380       .  A
C600        C601   1.409       .  A
C600        O606   1.322       .  A
C601        C602   1.407       .  A
C601        H610   1.082       .  S
C602        C605   1.370       .  A
O603        C604   1.330       .  A
C604        C605   1.393       .  A
C605        H611   1.082       .  S
O606        C607   1.333       .  A
C607        C608   1.388       .  A
C608        H612   1.082       .  S
C613        C618   1.381       .  A
C613        C614   1.399       .  A
C613        O619   1.312       .  A
C614        C615   1.396       .  A
C614        H625   1.083       .  S
C615        C624   1.357       .  A
C615        C616   1.382       .  A
C616        C617   1.403       .  A
C616        O622   1.316       .  A
C617        C618   1.401       .  A
C617        H626   1.082       .  S
C618        C621   1.364       .  A
O619        C620   1.328       .  A
C620        C621   1.389       .  A
C621        H627   1.082       .  S
O622        C623   1.329       .  A
C623        C624   1.387       .  A
C624        H628   1.082       .  S
C629        C634   1.381       .  A
C629        C630   1.399       .  A
C629        O635   1.314       .  A
C630        C631   1.398       .  A
C630        H641   1.082       .  S
C631        C640   1.357       .  A
C631        C632   1.381       .  A
C632        C633   1.406       .  A
C632        O638   1.320       .  A
C633        C634   1.405       .  A
C633        H642   1.082       .  S
C634        C637   1.365       .  A
O635        C636   1.328       .  A
C636        C637   1.391       .  A
C637        H643   1.082       .  S
O638        C639   1.331       .  A
C639        C640   1.387       .  A
C640        H644   1.082       .  S
C645        C650   1.381       .  A
C645        C646   1.399       .  A
C645        O651   1.316       .  A
C646        C647   1.399       .  A
C646        H657   1.082       .  S
C647        C656   1.356       .  A
C647        C648   1.381       .  A
C648        C649   1.407       .  A
C648        O654   1.323       .  A
C649        C650   1.407       .  A
C649        H658   1.082       .  S
C650        C653   1.365       .  A
O651        C652   1.329       .  A
C652        C653   1.393       .  A
C653        H659   1.082       .  S
O654        C655   1.332       .  A
C655        C656   1.389       .  A
C656        H660   1.083       .  S
C661        C666   1.381       .  A
C661        C662   1.398       .  A
C661        O667   1.314       .  A
C662        C663   1.397       .  A
C662        H673   1.082       .  S
C663        C672   1.355       .  A
C663        C664   1.380       .  A
C664        C665   1.407       .  A
C664        O670   1.322       .  A
C665        C666   1.406       .  A
C665        H674   1.082       .  S
C666        C669   1.367       .  A
O667        C668   1.328       .  A
C668        C669   1.392       .  A
C669        H675   1.082       .  S
O670        C671   1.333       .  A
C671        C672   1.389       .  A
C672        H676   1.083       .  S
C677        C682   1.378       .  A
C677        C678   1.413       .  A
C677        O683   1.325       .  A
C678        C679   1.412       .  A
C678        H689   1.082       .  S
C679        C688   1.376       .  A
C679        C680   1.379       .  A
C680        C681   1.404       .  A
C680        O686   1.317       .  A
C681        C682   1.402       .  A
C681        H690   1.082       .  S
C682        C685   1.364       .  A
O683        C684   1.337       .  A
C684        C685   1.392       .  A
C685        H691   1.082       .  S
O686        C687   1.331       .  A
C687        C688   1.396       .  A
C688        H692   1.082       .  S
C693        C698   1.379       .  A
C693        C694   1.400       .  A
C693        O699   1.320       .  A
C694        C695   1.402       .  A
C694        H705   1.082       .  S
C695        C704   1.353       .  A
C695        C696   1.380       .  A
C696        C697   1.406       .  A
C696        O702   1.326       .  A
C697        C698   1.408       .  A
C697        H706   1.082       .  S
C698        C701   1.361       .  A
O699        C700   1.332       .  A
C700        C701   1.399       .  A
C701        H707   1.082       .  S
O702        C703   1.332       .  A
C703        C704   1.393       .  A
C704        H708   1.083       .  S
C709        C714   1.380       .  A
C709        C710   1.406       .  A
C709        O715   1.327       .  A
C710        C711   1.408       .  A
C710        H721   1.082       .  S
C711        C720   1.362       .  A
C711        C712   1.381       .  A
C712        C713   1.397       .  A
C712        O718   1.318       .  A
C713        C714   1.399       .  A
C713        H722   1.083       .  S
C714        C717   1.350       .  A
O715        C716   1.333       .  A
C716        C717   1.391       .  A
C717        H723   1.082       .  S
O718        C719   1.328       .  A
C719        C720   1.395       .  A
C720        H724   1.082       .  S
C725        C730   1.379       .  A
C725        C726   1.409       .  A
C725        O731   1.327       .  A
C726        C727   1.410       .  A
C726        H737   1.082       .  S
C727        C736   1.367       .  A
C727        C728   1.380       .  A
C728        C729   1.401       .  A
C728        O734   1.319       .  A
C729        C730   1.402       .  A
C729        H738   1.082       .  S
C730        C733   1.356       .  A
O731        C732   1.334       .  A
C732        C733   1.391       .  A
C733        H739   1.083       .  S
O734        C735   1.330       .  A
C735        C736   1.394       .  A
C736        H740   1.082       .  S
C741        C746   1.380       .  A
C741        C742   1.399       .  A
C741        O747   1.310       .  A
C742        C743   1.396       .  A
C742        H753   1.083       .  S
C743        C752   1.359       .  A
C743        C744   1.380       .  A
C744        C745   1.411       .  A
C744        O750   1.322       .  A
C745        C746   1.409       .  A
C745        H754   1.082       .  S
C746        C749   1.375       .  A
O747        C748   1.328       .  A
C748        C749   1.394       .  A
C749        H755   1.082       .  S
O750        C751   1.334       .  A
C751        C752   1.387       .  A
C752        H756   1.082       .  S
C757        C762   1.381       .  A
C757        C758   1.408       .  A
C757        O763   1.325       .  A
C758        C759   1.408       .  A
C758        H769   1.082       .  S
C759        C768   1.365       .  A
C759        C760   1.382       .  A
C760        C761   1.396       .  A
C760        O766   1.314       .  A
C761        C762   1.396       .  A
C761        H770   1.082       .  S
C762        C765   1.351       .  A
O763        C764   1.333       .  A
C764        C765   1.387       .  A
C765        H771   1.083       .  S
O766        C767   1.326       .  A
C767        C768   1.394       .  A
C768        H772   1.082       .  S
C773        C778   1.382       .  A
C773        C774   1.395       .  A
C773        O779   1.313       .  A
C774        C775   1.395       .  A
C774        H785   1.083       .  S
C775        C784   1.350       .  A
C775        C776   1.380       .  A
C776        C777   1.407       .  A
C776        O782   1.323       .  A
C777        C778   1.407       .  A
C777        H786   1.082       .  S
C778        C781   1.365       .  A
O779        C780   1.326       .  A
C780        C781   1.393       .  A
C781        H787   1.082       .  S
O782        C783   1.332       .  A
C783        C784   1.387       .  A
C784        H788   1.082       .  S
C789        C794   1.380       .  A
C789        C790   1.407       .  A
C789        O795   1.324       .  A
C790        C791   1.407       .  A
C790        H801   1.082       .  S
C791        C800   1.366       .  A
C791        C792   1.381       .  A
C792        C793   1.399       .  A
C792        O798   1.316       .  A
C793        C794   1.399       .  A
C793        H802   1.083       .  S
C794        C797   1.354       .  A
O795        C796   1.332       .  A
C796        C797   1.390       .  A
C797        H803   1.082       .  S
O798        C799   1.328       .  A
C799        C800   1.392       .  A
C800        H804   1.082       .  S
C805        C810   1.381       .  A
C805        C806   1.399       .  A
C805        O811   1.312       .  A
C806        C807   1.397       .  A
C806        H817   1.083       .  S
C807        C816   1.357       .  A
C807        C808   1.381       .  A
C808        C809   1.407       .  A
C808        O814   1.320       .  A
C809        C810   1.405       .  A
C809        H818   1.082       .  S
C810        C813   1.368       .  A
O811        C812   1.327       .  A
C812        C813   1.391       .  A
C813        H819   1.082       .  S
O814        C815   1.332       .  A
C815        C816   1.388       .  A
C816        H820   1.082       .  S
C821        C826   1.381       .  A
C821        C822   1.403       .  A
C821        O827   1.321       .  A
C822        C823   1.403       .  A
C822        H833   1.082       .  S
C823        C832   1.360       .  A
C823        C824   1.382       .  A
C824        C825   1.399       .  A
C824        O830   1.316       .  A
C825        C826   1.399       .  A
C825        H834   1.083       .  S
C826        C829   1.354       .  A
O827        C828   1.330       .  A
C828        C829   1.390       .  A
C829        H835   1.082       .  S
O830        C831   1.328       .  A
C831        C832   1.389       .  A
C832        H836   1.082       .  S
C837        C842   1.381       .  A
C837        C838   1.407       .  A
C837        O843   1.324       .  A
C838        C839   1.407       .  A
C838        H849   1.082       .  S
C839        C848   1.365       .  A
C839        C840   1.381       .  A
C840        C841   1.397       .  A
C840        O846   1.315       .  A
C841        C842   1.398       .  A
C841        H850   1.083       .  S
C842        C845   1.353       .  A
O843        C844   1.332       .  A
C844        C845   1.388       .  A
C845        H851   1.083       .  S
O846        C847   1.328       .  A
C847        C848   1.394       .  A
C848        H852   1.082       .  S
C853        C858   1.381       .  A
C853        C854   1.399       .  A
C853        O859   1.312       .  A
C854        C855   1.396       .  A
C854        H865   1.083       .  S
C855        C864   1.357       .  A
C855        C856   1.380       .  A
C856        C857   1.408       .  A
C856        O862   1.321       .  A
C857        C858   1.406       .  A
C857        H866   1.082       .  S
C858        C861   1.370       .  A
O859        C860   1.328       .  A
C860        C861   1.392       .  A
C861        H867   1.082       .  S
O862        C863   1.332       .  A
C863        C864   1.388       .  A
C864        H868   1.083       .  S
C869        C874   1.380       .  A
C869        C870   1.409       .  A
C869        O875   1.322       .  A
C870        C871   1.407       .  A
C870        H881   1.082       .  S
C871        C880   1.369       .  A
C871        C872   1.379       .  A
C872        C873   1.399       .  A
C872        O878   1.313       .  A
C873        C874   1.398       .  A
C873        H882   1.082       .  S
C874        C877   1.358       .  A
O875        C876   1.333       .  A
C876        C877   1.386       .  A
C877        H883   1.083       .  S
O878        C879   1.330       .  A
C879        C880   1.395       .  A
C880        H884   1.082       .  S
C885        C890   1.379       .  A
C885        C886   1.401       .  A
C885        O891   1.315       .  A
C886        C887   1.400       .  A
C886        H897   1.082       .  S
C887        C896   1.360       .  A
C887        C888   1.379       .  A
C888        C889   1.409       .  A
C888        O894   1.322       .  A
C889        C890   1.407       .  A
C889        H898   1.082       .  S
C890        C893   1.369       .  A
O891        C892   1.330       .  A
C892        C893   1.395       .  A
C893        H899   1.082       .  S
O894        C895   1.333       .  A
C895        C896   1.388       .  A
C896        H900   1.083       .  S
C901        C906   1.381       .  A
C901        C902   1.399       .  A
C901        O907   1.315       .  A
C902        C903   1.398       .  A
C902        H913   1.082       .  S
C903        C912   1.357       .  A
C903        C904   1.381       .  A
C904        C905   1.407       .  A
C904        O910   1.322       .  A
C905        C906   1.407       .  A
C905        H914   1.082       .  S
C906        C909   1.366       .  A
O907        C908   1.328       .  A
C908        C909   1.393       .  A
C909        H915   1.082       .  S
O910        C911   1.332       .  A
C911        C912   1.389       .  A
C912        H916   1.083       .  S
C917        C922   1.381       .  A
C917        C918   1.398       .  A
C917        O923   1.312       .  A
C918        C919   1.396       .  A
C918        H929   1.083       .  S
C919        C928   1.356       .  A
C919        C920   1.381       .  A
C920        C921   1.407       .  A
C920        O926   1.320       .  A
C921        C922   1.406       .  A
C921        H930   1.082       .  S
C922        C925   1.368       .  A
O923        C924   1.327       .  A
C924        C925   1.391       .  A
C925        H931   1.082       .  S
O926        C927   1.331       .  A
C927        C928   1.386       .  A
C928        H932   1.082       .  S
C933        C938   1.380       .  A
C933        C934   1.404       .  A
C933        O939   1.315       .  A
C934        C935   1.401       .  A
C934        H945   1.082       .  S
C935        C944   1.364       .  A
C935        C936   1.380       .  A
C936        C937   1.406       .  A
C936        O942   1.317       .  A
C937        C938   1.403       .  A
C937        H946   1.082       .  S
C938        C941   1.369       .  A
O939        C940   1.331       .  A
C940        C941   1.391       .  A
C941        H947   1.082       .  S
O942        C943   1.332       .  A
C943        C944   1.391       .  A
C944        H948   1.082       .  S
C949        C954   1.380       .  A
C949        C950   1.408       .  A
C949        O955   1.327       .  A
C950        C951   1.409       .  A
C950        H961   1.082       .  S
C951        C960   1.364       .  A
C951        C952   1.381       .  A
C952        C953   1.397       .  A
C952        O958   1.318       .  A
C953        C954   1.399       .  A
C953        H962   1.083   1_655  S
C954        C957   1.350       .  A
O955        C956   1.333       .  A
C956        C957   1.391       .  A
C957        H963   1.082   1_655  S
O958        C959   1.328       .  A
C959        C960   1.394       .  A
C960        H964   1.082       .  S
C965        C970   1.382       .  A
C965        C966   1.398       .  A
C965        O971   1.316       .  A
C966        C967   1.399       .  A
C966        H977   1.083       .  S
C967        C976   1.353       .  A
C967        C968   1.381       .  A
C968        C969   1.404       .  A
C968        O974   1.323       .  A
C969        C970   1.405       .  A
C969        H978   1.082       .  S
C970        C973   1.361       .  A
O971        C972   1.328       .  A
C972        C973   1.390       .  A
C973        H979   1.082       .  S
O974        C975   1.331       .  A
C975        C976   1.389       .  A
C976        H980   1.083       .  S
C981        C986   1.382       .  A
C981        C982   1.395       .  A
C981        O987   1.312       .  A
C982        C983   1.395       .  A
C982        H993   1.082       .  S
C983        C992   1.352       .  A
C983        C984   1.381       .  A
C984        C985   1.408       .  A
C984        O990   1.324       .  A
C985        C986   1.408       .  A
C985        H994   1.082       .  S
C986        C989   1.367       .  A
O987        C988   1.325       .  A
C988        C989   1.394       .  A
C989        H995   1.082       .  S
O990        C991   1.333       .  A
C991        C992   1.386       .  A
C992        H996   1.083       .  S
