geometry optimzed in LAMMPS
_audit_creation_date              2020-11-30 
_audit_creation_method            'lammps2cif' 
_symmetry_space_group_name_H-M    'P1' 
_symmetry_Int_Tables_number       1 
_symmetry_cell_setting            triclinic 
loop_ 
_symmetry_equiv_pos_as_xyz 
  x,y,z 
_cell_length_a                    58.15511641 
_cell_length_b                    58.16679420135784 
_cell_length_c                    58.15222359955638 
_cell_angle_alpha                 89.99878832753386 
_cell_angle_beta                  90.00710032598461 
_cell_angle_gamma                 89.99025480709736 
loop_ 
_atom_site_label 
_atom_site_type_symbol 
_atom_site_fract_x 
_atom_site_fract_y 
_atom_site_fract_z 
_atom_site_charge 
O1          O  0.80299714  0.39023681  0.67656025    -0.53000
C2          C  0.78175092  0.41633239  0.73719485     0.79600
O3          O  0.85845213  0.40845221  0.72553197    -0.54200
C4          C  0.82109775  0.38729831  0.66492525     0.79600
C5          C  0.82687504  0.46260441  0.69605921     0.82000
Cd6        Cd  0.82078396  0.41456556  0.70659799     1.37500
O7          O  0.77995032  0.40785725  0.71724448    -0.53000
O8          O  0.80945758  0.45162395  0.68914190    -0.51800
C9          C  0.85280001  0.38963834  0.73484133     0.81900
O10         O  0.84201906  0.45133580  0.70678932    -0.54200
O11         O  0.80118780  0.42420225  0.74283922    -0.52700
O12         O  0.83891559  0.39768305  0.67174906    -0.52700
O13         O  0.83271642  0.38232604  0.73100346    -0.51800
O14         O  0.89312228  0.29989381  0.83398434    -0.53000
C15         C  0.91957516  0.27871844  0.77343152     0.79600
O16         O  0.91187159  0.35510676  0.78478946    -0.54200
C17         C  0.89028904  0.31796673  0.84568702     0.79600
C18         C  0.96563705  0.32348804  0.81500117     0.82000
Cd19       Cd  0.91766205  0.31761183  0.80413099     1.37500
O20         O  0.91156295  0.27670226  0.79354985    -0.53000
O21         O  0.95453349  0.30614104  0.82188331    -0.51800
C22         C  0.89279799  0.34964085  0.77588599     0.81900
O23         O  0.95450758  0.33866612  0.80417574    -0.54200
O24         O  0.92688945  0.29832383  0.76765014    -0.52700
O25         O  0.90076560  0.33575725  0.83893371    -0.52700
O26         O  0.88520273  0.32975010  0.78014985    -0.51800
O27         O  0.67267981  0.38918232  0.80827690    -0.53000
C28         C  0.73232518  0.41642643  0.78675432     0.79600
O29         O  0.70249531  0.45151900  0.84686349    -0.54200
C30         C  0.66028712  0.38717077  0.82599156     0.79600
C31         C  0.73013388  0.38952030  0.85789244     0.82000
Cd32       Cd  0.70189108  0.41455692  0.82588288     1.37500
O33         O  0.71200849  0.40891762  0.78475618    -0.53000
O34         O  0.72681265  0.38259071  0.83758261    -0.51800
C35         C  0.69157017  0.46270046  0.83178891     0.81900
O36         O  0.72026449  0.40797261  0.86380211    -0.54200
O37         O  0.73838858  0.42335086  0.80642733    -0.52700
O38         O  0.66635542  0.39848098  0.84352251    -0.52700
O39         O  0.68441718  0.45160623  0.81454065    -0.51800
O40         O  0.78952826  0.27646046  0.91755201    -0.53000
C41         C  0.84102923  0.31796390  0.89530153     0.79600
O42         O  0.78052119  0.35524483  0.91677050    -0.54200
C43         C  0.76910329  0.27856352  0.92472479     0.79600
C44         C  0.81029863  0.32351075  0.97090486     0.82000
Cd45       Cd  0.79960783  0.31762425  0.92287055     1.37500
O46         O  0.82897424  0.30006606  0.89769069    -0.53000
O47         O  0.81745551  0.30631159  0.95974404    -0.51800
C48         C  0.77133999  0.34959545  0.89787812     0.81900
O49         O  0.79923912  0.33855442  0.95982025    -0.54200
O50         O  0.83471093  0.33558244  0.90633405    -0.52700
O51         O  0.76295274  0.29831637  0.93131572    -0.52700
O52         O  0.77535710  0.32956639  0.89051332    -0.51800
O53         O  0.60802440  0.32602312  0.80774905    -0.53000
C54         C  0.58166922  0.26548924  0.78651312     0.79600
O55         O  0.59010032  0.27747029  0.86331447    -0.54200
C56         C  0.61087420  0.33770972  0.82583198     0.79600
C57         C  0.53556635  0.30652955  0.83154148     0.82000
Cd58       Cd  0.58363178  0.29602941  0.82552713     1.37500
O59         O  0.59025877  0.28538701  0.78470685    -0.53000
O60         O  0.54659928  0.31354016  0.81419442    -0.51800
C61         C  0.60865657  0.26776705  0.85745928     0.81900
O62         O  0.54679438  0.29571509  0.84665855    -0.54200
O63         O  0.57379296  0.25987120  0.80595699    -0.52700
O64         O  0.60044045  0.33091257  0.84363114    -0.52700
O65         O  0.61567081  0.27120283  0.83719579    -0.51800
O66         O  0.69827913  0.16876756  0.89774338    -0.53000
C67         C  0.71964910  0.22906564  0.92446134     0.79600
O68         O  0.64300469  0.21753948  0.91637512    -0.54200
C69         C  0.68021711  0.15702777  0.89500036     0.79600
C70         C  0.67472201  0.18769755  0.97046847     0.82000
Cd71       Cd  0.68063693  0.19850994  0.92247420     1.37500
O72         O  0.72156107  0.20902035  0.91624559    -0.53000
O73         O  0.69202974  0.18070710  0.95935895    -0.51800
C74         C  0.64868269  0.22680898  0.89754111     0.81900
O75         O  0.65960414  0.19861104  0.95933891    -0.54200
O76         O  0.70010117  0.23482442  0.93196712    -0.52700
O77         O  0.66248503  0.16368473  0.90564199    -0.52700
O78         O  0.66875931  0.22291958  0.89023470    -0.51800
O79         O  0.77981732  0.28625052  0.59336859    -0.53000
C80         C  0.82120411  0.33777930  0.61555939     0.79600
O81         O  0.85878454  0.27750477  0.59452169    -0.54200
C82         C  0.78190312  0.26582362  0.58619994     0.79600
C83         C  0.82687451  0.30653404  0.53998763     0.82000
Cd84       Cd  0.82102021  0.29622145  0.58813553     1.37500
O85         O  0.80353293  0.32530143  0.61371358    -0.53000
O86         O  0.80970252  0.31379320  0.55113161    -0.51800
C87         C  0.85296334  0.26794925  0.61316922     0.81900
O88         O  0.84192380  0.29553417  0.55113264    -0.54200
O89         O  0.83866088  0.33180048  0.60408294    -0.52700
O90         O  0.80165803  0.25963882  0.57963760    -0.52700
O91         O  0.83279115  0.27163769  0.62031108    -0.51800
O92         O  0.91257765  0.20882829  0.72618494    -0.53000
C93         C  0.89047114  0.15702133  0.68511619     0.79600
O94         O  0.91165931  0.21733683  0.64737169    -0.54200
C95         C  0.91980477  0.22921708  0.72398043     0.79600
C96         C  0.96594140  0.18791111  0.67922776     0.82000
Cd97       Cd  0.91789261  0.19852008  0.68509750     1.37500
O98         O  0.89280231  0.16924175  0.70291398    -0.53000
O99         O  0.95478356  0.18075161  0.69642849    -0.51800
C100        C  0.89281451  0.22659473  0.65304764     0.81900
O101        O  0.95484702  0.19894122  0.66416653    -0.54200
O102        O  0.90146713  0.16323514  0.66743579    -0.52700
O103        O  0.92642234  0.23525196  0.70419861    -0.52700
O104        O  0.88550188  0.22268752  0.67312002    -0.51800
O105        O  0.58897457  0.21798599  0.71678023    -0.53000
C106        C  0.61084139  0.17680054  0.66513314     0.79600
O107        O  0.58980611  0.13908078  0.72515947    -0.54200
C108        C  0.58140063  0.21598661  0.73707207     0.79600
C109        C  0.53524927  0.17086905  0.69619172     0.82000
Cd110      Cd  0.58333357  0.17690366  0.70663814     1.37500
O111        O  0.60854114  0.19460330  0.67734541    -0.53000
O112        O  0.54630666  0.18814800  0.68906879    -0.51800
C113        C  0.60831205  0.14495914  0.73494944     0.81900
O114        O  0.54645116  0.15582284  0.70712882    -0.54200
O115        O  0.59975636  0.15917761  0.67133293    -0.52700
O116        O  0.57442710  0.19632955  0.74310836    -0.52700
O117        O  0.61532203  0.16521909  0.73152163    -0.51800
O118        O  0.72151372  0.08487195  0.79424093    -0.53000
C119        C  0.68003546  0.10757663  0.84557500     0.79600
O120        O  0.64258523  0.08609860  0.78533269    -0.54200
C121        C  0.71932102  0.07805052  0.77370621     0.79600
C122        C  0.67440538  0.03192206  0.81489027     0.82000
Cd123      Cd  0.68028842  0.07994368  0.80421087     1.37500
O124        O  0.69788491  0.10524558  0.83342910    -0.53000
O125        O  0.69139971  0.04317372  0.82238434    -0.51800
C126        C  0.64824253  0.10496001  0.77610114     0.81900
O127        O  0.65955401  0.04290681  0.80347555    -0.54200
O128        O  0.66241666  0.09648897  0.83934891    -0.52700
O129        O  0.69948299  0.07183625  0.76743826    -0.52700
O130        O  0.66831267  0.11228108  0.78000600    -0.51800
O131        O  0.67222885  0.19495495  0.61312933    -0.53000
C132        C  0.73249204  0.21631147  0.58650637     0.79600
O133        O  0.72084444  0.13951466  0.59486989    -0.54200
C134        C  0.66041994  0.17693594  0.61582787     0.79600
C135        C  0.69145931  0.17117966  0.54050057     0.82000
Cd136      Cd  0.70207027  0.17721669  0.58853962     1.37500
O137        O  0.71253910  0.21809683  0.59497988    -0.53000
O138        O  0.68462711  0.18861195  0.55150666    -0.51800
C139        C  0.73045057  0.14533120  0.61348936     0.81900
O140        O  0.70215871  0.15599279  0.55174295    -0.54200
O141        O  0.73822663  0.19684338  0.57877891    -0.52700
O142        O  0.66709530  0.15918161  0.60524202    -0.52700
O143        O  0.72685928  0.16552934  0.62060160    -0.51800
O144        O  0.82944356  0.10456625  0.70334843    -0.53000
C145        C  0.76888158  0.07824660  0.72433787     0.79600
O146        O  0.78037510  0.08621816  0.64791214    -0.54200
C147        C  0.84112509  0.10752147  0.68528037     0.79600
C148        C  0.81032783  0.03221346  0.67939807     0.82000
Cd149      Cd  0.79957311  0.08018068  0.68545263     1.37500
O150        O  0.78898653  0.08628565  0.72635580    -0.53000
O151        O  0.81714435  0.04322021  0.69683653    -0.51800
C152        C  0.77143893  0.10524503  0.65347513     0.81900
O153        O  0.79961552  0.04343483  0.66420524    -0.54200
O154        O  0.76311123  0.07090361  0.70473243    -0.52700
O155        O  0.83438581  0.09713043  0.66743088    -0.52700
O156        O  0.77560153  0.11269376  0.67344733    -0.51800
O157        O  0.21168775  0.08549200  0.72617652    -0.53000
C158        C  0.16011677  0.10768717  0.68502379     0.79600
O159        O  0.21984571  0.08690553  0.64705880    -0.54200
C160        C  0.23203306  0.07808001  0.72410951     0.79600
C161        C  0.19110521  0.03216373  0.67899988     0.82000
Cd162      Cd  0.20160097  0.08020694  0.68500901     1.37500
O163        O  0.17254280  0.10564121  0.70271688    -0.53000
O164        O  0.18356585  0.04335642  0.69601734    -0.51800
C165        C  0.22969901  0.10535518  0.65300210     0.81900
O166        O  0.20248941  0.04321630  0.66417873    -0.54200
O167        O  0.16612105  0.09638914  0.66746242    -0.52700
O168        O  0.23812101  0.07134979  0.70437955    -0.52700
O169        O  0.22641590  0.11222832  0.67333731    -0.51800
O170        O  0.32859670  0.19478259  0.61323770    -0.53000
C171        C  0.26885084  0.21634328  0.58616183     0.79600
O172        O  0.29850467  0.15628268  0.55106418    -0.54200
C173        C  0.34076569  0.17694389  0.61551636     0.79600
C174        C  0.27090339  0.14531459  0.61307799     0.82000
Cd175      Cd  0.29922161  0.17720035  0.58804237     1.37500
O176        O  0.28921432  0.21834677  0.59353965    -0.53000
O177        O  0.27455671  0.16550261  0.62018652    -0.51800
C178        C  0.30964454  0.17123436  0.53994182     0.81900
O179        O  0.28048686  0.13946988  0.59445108    -0.54200
O180        O  0.26271367  0.19665724  0.57936607    -0.52700
O181        O  0.33449900  0.15934068  0.60442938    -0.52700
O182        O  0.31697309  0.18837260  0.55108431    -0.51800
O183        O  0.10739310  0.16854184  0.70326636    -0.53000
C184        C  0.08179727  0.22949691  0.72416663     0.79600
O185        O  0.08930514  0.21818625  0.64782282    -0.54200
C186        C  0.11069931  0.15712384  0.68509117     0.79600
C187        C  0.03551359  0.18795645  0.67937550     0.82000
Cd188      Cd  0.08350078  0.19877926  0.68529010     1.37500
O189        O  0.09033620  0.20958448  0.72601598    -0.53000
O190        O  0.04653564  0.18136316  0.69689268    -0.51800
C191        C  0.10841051  0.22701518  0.65328615     0.81900
O192        O  0.04672683  0.19847929  0.66404962    -0.54200
O193        O  0.07387583  0.23507149  0.70472881    -0.52700
O194        O  0.10072488  0.16417796  0.66712358    -0.52700
O195        O  0.11601683  0.22269128  0.67316622    -0.51800
O196        O  0.22121831  0.28580618  0.59478416    -0.53000
C197        C  0.18003125  0.33790653  0.61556841     0.79600
O198        O  0.15925515  0.29612314  0.55144438    -0.54200
C199        C  0.21939862  0.26581815  0.58641417     0.79600
C200        C  0.14838482  0.26804282  0.61326449     0.82000
Cd201      Cd  0.18034444  0.29629620  0.58830254     1.37500
O202        O  0.19807504  0.32613324  0.61284080    -0.53000
O203        O  0.16848494  0.27186465  0.62054312    -0.51800
C204        C  0.17440810  0.30693202  0.54026812     0.81900
O205        O  0.14268860  0.27737119  0.59446570    -0.54200
O206        O  0.16226492  0.33121884  0.60500360    -0.52700
O207        O  0.19991592  0.26007627  0.57872690    -0.52700
O208        O  0.19175968  0.31386924  0.55134078    -0.51800
O209        O  0.32931241  0.39027302  0.80755525    -0.53000
C210        C  0.26858728  0.41625993  0.78642166     0.79600
O211        O  0.28028493  0.40842731  0.86304319    -0.54200
C212        C  0.34096032  0.38734986  0.82565372     0.79600
C213        C  0.30973185  0.46259270  0.83116915     0.82000
Cd214      Cd  0.29922078  0.41451321  0.82537440     1.37500
O215        O  0.28848478  0.40765981  0.78462896    -0.53000
O216        O  0.31640501  0.45156633  0.81368656    -0.51800
C217        C  0.27101792  0.38958313  0.85741881     0.81900
O218        O  0.29927650  0.45135079  0.84652194    -0.54200
O219        O  0.26298020  0.42419456  0.80584515    -0.52700
O220        O  0.33411694  0.39770835  0.84348117    -0.52700
O221        O  0.27486087  0.38225137  0.83734126    -0.51800
O222        O  0.17189150  0.29997270  0.89786211    -0.53000
C223        C  0.23224856  0.27851310  0.92440888     0.79600
O224        O  0.22083427  0.35525145  0.91638052    -0.54200
C225        C  0.16022588  0.31806701  0.89501261     0.79600
C226        C  0.19089400  0.32366198  0.97042083     0.82000
Cd227      Cd  0.20176044  0.31763993  0.92244486     1.37500
O228        O  0.21224250  0.27670639  0.91606320    -0.53000
O229        O  0.18402688  0.30628160  0.95935664    -0.51800
C230        C  0.23010837  0.34958200  0.89754714     0.81900
O231        O  0.20172319  0.33880722  0.95925695    -0.73400
O232        O  0.23800343  0.29800598  0.93205308    -0.52700
O233        O  0.16698618  0.33583475  0.90551909    -0.52700
O234        O  0.22621932  0.32951274  0.89023127    -0.51800
O235        O  0.19774222  0.38959457  0.67715829    -0.53000
C236        C  0.21918132  0.41669887  0.73687770     0.79600
O237        O  0.15916323  0.45177851  0.70688311    -0.54200
C238        C  0.17993625  0.38739239  0.66492528     0.79600
C239        C  0.14817153  0.38991012  0.73472783     0.82000
Cd240      Cd  0.18012567  0.41485801  0.70641294     1.37500
O241        O  0.22118254  0.40907763  0.71660404    -0.53000
O242        O  0.16836690  0.38278846  0.73112609    -0.51800
C243        C  0.17418323  0.46288808  0.69582282     0.81900
O244        O  0.14234932  0.40851593  0.72509653    -0.54200
O245        O  0.19955096  0.42380424  0.74285887    -0.52700
O246        O  0.16234628  0.39854797  0.67110918    -0.52700
O247        O  0.19140610  0.45176224  0.68865644    -0.51800
O248        O  0.10828363  0.30035262  0.83356648    -0.53000
C249        C  0.08153569  0.27900481  0.77359441     0.79600
O250        O  0.04612123  0.33861341  0.80346349    -0.54200
C251        C  0.11077740  0.31826549  0.84558182     0.79600
C252        C  0.10824303  0.35002575  0.77597870     0.82000
Cd253      Cd  0.08325105  0.31800159  0.80414128     1.37500
O254        O  0.08872596  0.27689497  0.79401415    -0.53000
O255        O  0.11546959  0.32989273  0.77972252    -0.51800
C256        C  0.03519991  0.32370471  0.81485665     0.81900
O257        O  0.08949839  0.35576238  0.78540636    -0.54200
O258        O  0.07486077  0.29873751  0.76746995    -0.52700
O259        O  0.09989950  0.33595584  0.83918720    -0.52700
O260        O  0.04652090  0.30672777  0.82228671    -0.51800
O261        O  0.41251863  0.28620630  0.78461017    -0.53000
C262        C  0.39036932  0.33786535  0.82582146     0.79600
O263        O  0.41107331  0.27810423  0.86377256    -0.54200
C264        C  0.41991534  0.26585544  0.78668050     0.79600
C265        C  0.46595036  0.30659109  0.83170886     0.82000
Cd266      Cd  0.41782000  0.29629890  0.82579239     1.37500
O267        O  0.39205987  0.32521233  0.80825663    -0.53000
O268        O  0.45479144  0.31401971  0.81461437    -0.51800
C269        C  0.39273305  0.26807955  0.85777129     0.81900
O270        O  0.45483032  0.29542099  0.84664467    -0.54200
O271        O  0.40200393  0.33205589  0.84323312    -0.52700
O272        O  0.42665789  0.25977533  0.80641165    -0.52700
O273        O  0.38591729  0.27127270  0.83740232    -0.51800
O274        O  0.27964001  0.20854142  0.91757006    -0.53000
C275        C  0.32104616  0.15709423  0.89515556     0.79600
O276        O  0.35866869  0.21724098  0.91635502    -0.54200
C277        C  0.28173375  0.22899490  0.92465815     0.79600
C278        C  0.32684948  0.18804625  0.97082585     0.82000
Cd279      Cd  0.32088162  0.19853621  0.92273660     1.37500
O280        O  0.30326661  0.16936388  0.89735717    -0.53000
O281        O  0.30967749  0.18078059  0.95968883    -0.51800
C282        C  0.35285770  0.22676468  0.89768338     0.81900
O283        O  0.34184480  0.19912149  0.95969665    -0.54200
O284        O  0.33862335  0.16320731  0.90637287    -0.52700
O285        O  0.30151000  0.23518821  0.93115129    -0.52700
O286        O  0.33267848  0.22308774  0.89054981    -0.51800
O287        O  0.39302568  0.19508114  0.67674044    -0.53000
C288        C  0.41966701  0.21635727  0.73718960     0.79600
O289        O  0.41145693  0.13974873  0.72565925    -0.54200
C290        C  0.39022893  0.17703845  0.66498406     0.79600
C291        C  0.46565226  0.17103144  0.69607199     0.82000
Cd292      Cd  0.41762152  0.17732035  0.70660295     1.37500
O293        O  0.41165391  0.21832274  0.71706192    -0.53000
O294        O  0.45472497  0.18848147  0.68915289    -0.51800
C295        C  0.39257546  0.14541228  0.73483496     0.81900
O296        O  0.45432708  0.15591958  0.70677883    -0.54200
O297        O  0.42693842  0.19674623  0.74302570    -0.52700
O298        O  0.40078926  0.15927115  0.67167340    -0.52700
O299        O  0.38525177  0.16547020  0.73088122    -0.51800
O300        O  0.30290271  0.10500414  0.83381289    -0.53000
C301        C  0.28156265  0.07830489  0.77353758     0.79600
O302        O  0.35819097  0.08642500  0.78489761    -0.54200
C303        C  0.32094116  0.10776466  0.84559055     0.79600
C304        C  0.32671048  0.03233181  0.81475077     0.82000
Cd305      Cd  0.32063197  0.08033687  0.80404358     1.37500
O306        O  0.27960608  0.08621456  0.79370312    -0.53000
O307        O  0.30936456  0.04338128  0.82173386    -0.51800
C308        C  0.35254126  0.10533508  0.77576937     0.81900
O309        O  0.34181869  0.04352558  0.80389886    -0.54200
O310        O  0.30119095  0.07114231  0.76761966    -0.52700
O311        O  0.33870814  0.09718333  0.83892794    -0.52700
O312        O  0.33250760  0.11269556  0.77978938    -0.51800
O313        O  0.67246531  0.80027002  0.61319769    -0.53000
C314        C  0.73203272  0.77864830  0.58593105     0.79600
O315        O  0.70215810  0.83861640  0.55082614    -0.54200
C316        C  0.66018994  0.81805865  0.61527963     0.79600
C317        C  0.72988875  0.84978179  0.61281588     0.82000
Cd318      Cd  0.70167077  0.81776846  0.58782169     1.37500
O319        O  0.71166436  0.77662900  0.59328358    -0.53000
O320        O  0.72611479  0.82966434  0.62005939    -0.51800
C321        C  0.69106335  0.82357767  0.53977274     0.81900
O322        O  0.72050833  0.85548837  0.59404052    -0.54200
O323        O  0.73817847  0.79834366  0.57917000    -0.52700
O324        O  0.66633279  0.83558546  0.60400669    -0.52700
O325        O  0.68386145  0.80642145  0.55096773    -0.51800
O326        O  0.78881040  0.90827700  0.72566545    -0.53000
C327        C  0.84091838  0.88740776  0.68460007     0.79600
O328        O  0.78014372  0.90867166  0.64720184    -0.54200
C329        C  0.76873001  0.91641087  0.72376433     0.79600
C330        C  0.81015149  0.96267191  0.67910464     0.82000
Cd331      Cd  0.79931576  0.91467987  0.68479859     1.37500
O332        O  0.82907538  0.89014673  0.70259389    -0.53000
O333        O  0.81709967  0.95146623  0.69636357    -0.51800
C334        C  0.77102009  0.88974712  0.65280554     0.81900
O335        O  0.79922601  0.95164816  0.66391879    -0.54200
O336        O  0.83428811  0.89794653  0.66678982    -0.52700
O337        O  0.76295874  0.92400068  0.70425193    -0.52700
O338        O  0.77510356  0.88231902  0.67280136    -0.51800
O339        O  0.80282373  0.66889221  0.61266471    -0.53000
C340        C  0.78152007  0.72923427  0.58625818     0.79600
O341        O  0.85822442  0.71784627  0.59436564    -0.54200
C342        C  0.82087752  0.65715138  0.61546691     0.79600
C343        C  0.82653140  0.68814750  0.54022265     0.82000
Cd344      Cd  0.82060067  0.69881596  0.58823697     1.37500
O345        O  0.77982104  0.70940266  0.59501575    -0.53000
O346        O  0.80904373  0.68145455  0.55122781    -0.51800
C347        C  0.85252613  0.72720774  0.61314367     0.81900
O348        O  0.84181470  0.69870819  0.55146248    -0.54200
O349        O  0.80090228  0.73485540  0.57823665    -0.52700
O350        O  0.83866799  0.66388091  0.60497356    -0.52700
O351        O  0.83243389  0.72336908  0.62042920    -0.51800
O352        O  0.89302204  0.82618110  0.70284007    -0.53000
C353        C  0.91959570  0.76583713  0.72408542     0.79600
O354        O  0.91134982  0.77762523  0.64736307    -0.54200
C355        C  0.89036565  0.83801671  0.68482516     0.79600
C356        C  0.96565978  0.80703041  0.67908972     0.82000
Cd357      Cd  0.91764897  0.79640967  0.68508798     1.37500
O358        O  0.91146300  0.78591532  0.72601704    -0.53000
O359        O  0.95462219  0.81396764  0.69646259    -0.51800
C360        C  0.89259636  0.76823828  0.65310345     0.81900
O361        O  0.95446060  0.79621971  0.66395263    -0.54200
O362        O  0.92704720  0.76005279  0.70452282    -0.52700
O363        O  0.90100795  0.83139349  0.66708312    -0.52700
O364        O  0.88540555  0.77197036  0.67325228    -0.51800
O365        O  0.60798568  0.79997396  0.67646485    -0.53000
C366        C  0.58149443  0.77870944  0.73688504     0.79600
O367        O  0.58967009  0.85538467  0.72517844    -0.54200
C368        C  0.61079948  0.81803656  0.66474406     0.79600
C369        C  0.53545674  0.82372134  0.69561210     0.82000
Cd370      Cd  0.58344718  0.81771076  0.70631710     1.37500
O371        O  0.58982972  0.77682909  0.71688243    -0.53000
O372        O  0.54654856  0.80643896  0.68854009    -0.51800
C373        C  0.60839929  0.84963229  0.73461602     0.81900
O374        O  0.54660049  0.83878497  0.70657713    -0.54200
O375        O  0.57382766  0.79821011  0.74258089    -0.52700
O376        O  0.60029406  0.83582099  0.67147142    -0.52700
O377        O  0.61561311  0.82949638  0.73087446    -0.51800
O378        O  0.69819089  0.89017809  0.83404096    -0.53000
C379        C  0.71929268  0.91619320  0.77326731     0.79600
O380        O  0.64303308  0.90873766  0.78439590    -0.54200
C381        C  0.68005161  0.88716122  0.84559559     0.79600
C382        C  0.67453155  0.96237883  0.81488184     0.82000
Cd383      Cd  0.68041497  0.91442248  0.80398272     1.37500
O384        O  0.72127226  0.90807249  0.79334570    -0.53000
O385        O  0.69200541  0.95132258  0.82152855    -0.51800
C386        C  0.64842278  0.88954454  0.77571352     0.81900
O387        O  0.65923451  0.95121285  0.80426530    -0.54200
O388        O  0.69973209  0.92368195  0.76753448    -0.52700
O389        O  0.66219417  0.89742724  0.83868039    -0.52700
O390        O  0.66822642  0.88183371  0.78020436    -0.51800
O391        O  0.58919787  0.70909196  0.78447756    -0.53000
C392        C  0.61080666  0.65727222  0.82567867     0.79600
O393        O  0.58972659  0.71750284  0.86334478    -0.54200
C394        C  0.58145430  0.72931890  0.78645436     0.79600
C395        C  0.53525157  0.68837627  0.83123663     0.82000
Cd396      Cd  0.58338449  0.69883934  0.82552617     1.37500
O397        O  0.60869576  0.66958487  0.80791693    -0.53000
O398        O  0.54644301  0.68121142  0.81405511    -0.51800
C399        C  0.60836803  0.72709146  0.85756690     0.81900
O400        O  0.54634660  0.69932453  0.84635658    -0.54200
O401        O  0.59956599  0.66339928  0.84323724    -0.52700
O402        O  0.57435589  0.73528682  0.80609212    -0.52700
O403        O  0.61551185  0.72347755  0.83738129    -0.51800
O404        O  0.72153035  0.78654454  0.91763106    -0.53000
C405        C  0.68001907  0.83784827  0.89513586     0.79600
O406        O  0.64242972  0.77784793  0.91625382    -0.54200
C407        C  0.71947274  0.76610259  0.92476061     0.79600
C408        C  0.67432144  0.80700422  0.97076115     0.82000
Cd409      Cd  0.68026315  0.79643872  0.92270968     1.37500
O410        O  0.69779569  0.82555427  0.89724192    -0.53000
O411        O  0.69125833  0.81462360  0.95950563    -0.51800
C412        C  0.64825556  0.76827487  0.89761323     0.81900
O413        O  0.65953127  0.79552600  0.95976300    -0.54200
O414        O  0.66248365  0.83175434  0.90642536    -0.52700
O415        O  0.69970435  0.75987035  0.93123103    -0.52700
O416        O  0.66847224  0.77185637  0.89054057    -0.51800
O417        O  0.71226651  0.58637855  0.78446315    -0.53000
C418        C  0.66025967  0.60781232  0.82560564     0.79600
O419        O  0.70237299  0.54357096  0.84662423    -0.54200
C420        C  0.73236807  0.57829575  0.78640190     0.79600
C421        C  0.73003994  0.60546673  0.85741333     0.82000
Cd422      Cd  0.70184880  0.58039178  0.82545132     1.37500
O423        O  0.67228142  0.60532218  0.80769123    -0.53000
O424        O  0.72657084  0.61248220  0.83715580    -0.51800
C425        C  0.69143627  0.53231677  0.83161905     0.81900
O426        O  0.72038174  0.58689040  0.86326441    -0.54200
O427        O  0.66667660  0.59694268  0.84328967    -0.52700
O428        O  0.73820113  0.57095602  0.80599351    -0.52700
O429        O  0.68424035  0.54332932  0.81433041    -0.51800
O430        O  0.82911180  0.69515917  0.89760967    -0.53000
C431        C  0.76894704  0.71661648  0.92445966     0.79600
O432        O  0.78038079  0.63984078  0.91620993    -0.54200
C433        C  0.84094994  0.67714817  0.89495912     0.79600
C434        C  0.81008676  0.67140622  0.97036238     0.82000
Cd435      Cd  0.79937662  0.67748030  0.92235191     1.37500
O436        O  0.78898533  0.71845834  0.91620497    -0.53000
O437        O  0.81692926  0.68883519  0.95935948    -0.51800
C438        C  0.77102282  0.64553836  0.89742534     0.81900
O439        O  0.79936565  0.65623937  0.95912171    -0.54200
O440        O  0.76312650  0.69707565  0.93192810    -0.52700
O441        O  0.83434467  0.65942904  0.90564505    -0.52700
O442        O  0.77484151  0.66563706  0.89015196    -0.51800
O443        O  0.77974457  0.58562770  0.71656944    -0.53000
C444        C  0.82100138  0.60771629  0.66490775     0.79600
O445        O  0.85867474  0.58685533  0.72502912    -0.54200
C446        C  0.78181264  0.57814009  0.73688844     0.79600
C447        C  0.82701811  0.53219206  0.69603457     0.82000
Cd448      Cd  0.82089656  0.58025901  0.70644169     1.37500
O449        O  0.80322523  0.60553698  0.67718723    -0.53000
O450        O  0.80988180  0.54329595  0.68862581    -0.51800
C451        C  0.85275308  0.60541640  0.73468598     0.81900
O452        O  0.84191646  0.54334795  0.70721817    -0.54200
O453        O  0.83859620  0.59655015  0.67106765    -0.52700
O454        O  0.80153086  0.57134073  0.74293799    -0.52700
O455        O  0.83249643  0.61239974  0.73114716    -0.51800
O456        O  0.91260348  0.71843955  0.79396201    -0.53000
C457        C  0.89042085  0.67700987  0.84555173     0.79600
O458        O  0.91168126  0.63972731  0.78488810    -0.54200
C459        C  0.91973283  0.71631983  0.77352384     0.79600
C460        C  0.96593143  0.67124161  0.81469759     0.82000
Cd461      Cd  0.91787326  0.67727006  0.80404608     1.37500
O462        O  0.89295581  0.69494248  0.83357442    -0.53000
O463        O  0.95480657  0.68846088  0.82186118    -0.51800
C464        C  0.89272091  0.64538471  0.77585192     0.81900
O465        O  0.95480607  0.65623620  0.80363041    -0.54200
O466        O  0.90124461  0.65930681  0.83910616    -0.52700
O467        O  0.92625761  0.69654996  0.76735964    -0.52700
O468        O  0.88535128  0.66539096  0.77998015    -0.51800
O469        O  0.39270355  0.66919166  0.80725268    -0.53000
C470        C  0.41952446  0.72927807  0.78594890     0.79600
O471        O  0.41106807  0.71727213  0.86291071    -0.54200
C472        C  0.39025986  0.65716044  0.82516551     0.79600
C473        C  0.46561470  0.68838285  0.83096708     0.82000
Cd474      Cd  0.41750613  0.69882729  0.82502671     1.37500
O475        O  0.41108373  0.70931933  0.78413994    -0.53000
O476        O  0.45454083  0.68128530  0.81367801    -0.51800
C477        C  0.39248164  0.72696148  0.85712569     0.81900
O478        O  0.45441352  0.69926072  0.84605597    -0.54200
O479        O  0.42719725  0.73501818  0.80544045    -0.52700
O480        O  0.40110714  0.66360414  0.84285277    -0.52700
O481        O  0.38543382  0.72356494  0.83686686    -0.51800
O482        O  0.30290807  0.82614633  0.89754760    -0.53000
C483        C  0.28143368  0.76589965  0.92429000     0.79600
O484        O  0.35822789  0.77731247  0.91602435    -0.54200
C485        C  0.32100481  0.83781069  0.89471395     0.79600
C486        C  0.32651575  0.80719534  0.97017877     0.82000
Cd487      Cd  0.32056780  0.79631402  0.92218915     1.37500
O488        O  0.27963113  0.78585668  0.91583673    -0.53000
O489        O  0.30929969  0.81431958  0.95900996    -0.51800
C490        C  0.35248500  0.76790034  0.89727992     0.81900
O491        O  0.34155836  0.79612295  0.95910685    -0.54200
O492        O  0.30092322  0.76016896  0.93197209    -0.52700
O493        O  0.33877380  0.83105075  0.90523260    -0.52700
O494        O  0.33235818  0.77168793  0.89005133    -0.51800
O495        O  0.39239010  0.80029036  0.67689819    -0.53000
C496        C  0.41991106  0.77864997  0.73640127     0.79600
O497        O  0.45477722  0.83870151  0.70673381    -0.54200
C498        C  0.39035718  0.81804923  0.66457202     0.79600
C499        C  0.39283556  0.84965904  0.73439344     0.82000
Cd500      Cd  0.41785360  0.81777932  0.70605283     1.37500
O501        O  0.41248969  0.77661974  0.71605369    -0.53000
O502        O  0.38576839  0.82944721  0.73080131    -0.51800
C503        C  0.46588912  0.82376746  0.69555585     0.81900
O504        O  0.41142001  0.85552646  0.72474699    -0.54200
O505        O  0.42670250  0.79834620  0.74251001    -0.52700
O506        O  0.40168379  0.83555708  0.67066774    -0.52700
O507        O  0.45475456  0.80663131  0.68820789    -0.51800
O508        O  0.28000593  0.90876637  0.79352584    -0.53000
C509        C  0.32121407  0.88732267  0.84535464     0.79600
O510        O  0.35866395  0.90843996  0.78489406    -0.54200
C511        C  0.28197433  0.91650927  0.77329773     0.79600
C512        C  0.32685663  0.96276232  0.81455005     0.82000
Cd513      Cd  0.32100215  0.91472543  0.80383308     1.37500
O514        O  0.30325012  0.88998680  0.83344439    -0.53000
O515        O  0.30968864  0.95157066  0.82173177    -0.51800
C516        C  0.35293830  0.88961604  0.77563431     0.81900
O517        O  0.34188046  0.95171375  0.80342692    -0.54200
O518        O  0.33896965  0.89802300  0.83885134    -0.52700
O519        O  0.30158440  0.92369432  0.76735259    -0.52700
O520        O  0.33284708  0.88236398  0.77954301    -0.51800
O521        O  0.32903440  0.79990127  0.61262504    -0.53000
C522        C  0.26876233  0.77842259  0.58614622     0.79600
O523        O  0.27996834  0.85509036  0.59406650    -0.54200
C524        C  0.34083510  0.81793752  0.61523988     0.79600
C525        C  0.30982671  0.82348360  0.54003366     0.82000
Cd526      Cd  0.29915164  0.81753120  0.58804996     1.37500
O527        O  0.28873660  0.77665543  0.59457426    -0.53000
O528        O  0.31650468  0.80598249  0.55102821    -0.51800
C529        C  0.27078951  0.84947471  0.61295945     0.81900
O530        O  0.29924419  0.83874898  0.55127586    -0.54200
O531        O  0.26299108  0.79787973  0.57842010    -0.52700
O532        O  0.33413991  0.83565343  0.60459891    -0.52700
O533        O  0.27478634  0.82945155  0.62034823    -0.51800
O534        O  0.17157074  0.89039692  0.70282712    -0.53000
C535        C  0.23240129  0.91631209  0.72390562     0.79600
O536        O  0.22099258  0.90864797  0.64750012    -0.54200
C537        C  0.15995000  0.88746128  0.68471365     0.79600
C538        C  0.19104176  0.96259624  0.67909846     0.82000
Cd539      Cd  0.20168032  0.91457472  0.68500980     1.37500
O540        O  0.21239626  0.90800085  0.72582504    -0.53000
O541        O  0.18449366  0.95162754  0.69666264    -0.51800
C542        C  0.22985138  0.88956531  0.65299365     0.81900
O543        O  0.20143866  0.95131962  0.66373017    -0.54200
O544        O  0.23805779  0.92399573  0.70439823    -0.52700
O545        O  0.16682527  0.89777844  0.66687563    -0.52700
O546        O  0.22560655  0.88203655  0.67291761    -0.51800
O547        O  0.32826966  0.60587810  0.80770492    -0.53000
C548        C  0.26882501  0.57830546  0.78625357     0.79600
O549        O  0.29855612  0.54330863  0.84617294    -0.54200
C550        C  0.34082286  0.60773394  0.82532675     0.79600
C551        C  0.27108672  0.60526006  0.85743559     0.82000
Cd552      Cd  0.29927060  0.58030506  0.82533331     1.37500
O553        O  0.28912445  0.58584657  0.78422989    -0.53000
O554        O  0.27434514  0.61221815  0.83712608    -0.51800
C555        C  0.30965058  0.53219616  0.83117572     0.81900
O556        O  0.28101782  0.58682935  0.86331185    -0.54200
O557        O  0.26277580  0.57141703  0.80594101    -0.52700
O558        O  0.33492174  0.59626679  0.84281327    -0.52700
O559        O  0.31695814  0.54335122  0.81403203    -0.51800
O560        O  0.21150536  0.71846147  0.91763445    -0.53000
C561        C  0.16030247  0.67693686  0.89483422     0.79600
O562        O  0.22036952  0.63935226  0.91614090    -0.54200
C563        C  0.23202979  0.71636430  0.92452325     0.79600
C564        C  0.19114382  0.67111965  0.97052672     0.82000
Cd565      Cd  0.20170345  0.67715134  0.92247419     1.37500
O566        O  0.17260834  0.69469783  0.89695161    -0.53000
O567        O  0.18349973  0.68805881  0.95928978    -0.51800
C568        C  0.22987689  0.64512168  0.89744998     0.81900
O569        O  0.20265484  0.65636800  0.95951263    -0.54200
O570        O  0.16638685  0.65939979  0.90612886    -0.52700
O571        O  0.23836066  0.69654905  0.93074590    -0.52700
O572        O  0.22621146  0.66529076  0.89028627    -0.51800
O573        O  0.19777303  0.66939910  0.61300508    -0.53000
C574        C  0.21935130  0.72893505  0.58579961     0.79600
O575        O  0.15932366  0.69926746  0.55064557    -0.54200
C576        C  0.18004181  0.65703113  0.61499498     0.79600
C577        C  0.14821755  0.72683115  0.61273660     0.82000
Cd578      Cd  0.18020557  0.69859972  0.58764102     1.37500
O579        O  0.22132957  0.70860466  0.59326563    -0.53000
O580        O  0.16846685  0.72332345  0.61975482    -0.51800
C581        C  0.17436972  0.68825675  0.53951348     0.81900
O582        O  0.14234888  0.71714273  0.59417177    -0.54200
O583        O  0.19968869  0.73505015  0.57889179    -0.52700
O584        O  0.16252852  0.66310076  0.60365180    -0.52700
O585        O  0.19155764  0.68102619  0.55065491    -0.51800
O586        O  0.08920944  0.78606711  0.72569105    -0.53000
C587        C  0.11057336  0.83800270  0.68453049     0.79600
O588        O  0.08967976  0.77772157  0.64684836    -0.54200
C589        C  0.08136655  0.76587996  0.72372217     0.79600
C590        C  0.03522718  0.80700768  0.67883724     0.82000
Cd591      Cd  0.08327254  0.79639548  0.68466064     1.37500
O592        O  0.10823353  0.82586136  0.70238097    -0.53000
O593        O  0.04642976  0.81425966  0.69597317    -0.51800
C594        C  0.10831255  0.76812984  0.65266829     0.81900
O595        O  0.04627415  0.79587510  0.66381946    -0.54200
O596        O  0.09964578  0.83165893  0.66685191    -0.52700
O597        O  0.07411388  0.75999114  0.70411664    -0.52700
O598        O  0.11542579  0.77176135  0.67286386    -0.51800
O599        O  0.22138425  0.58640803  0.71657668    -0.53000
C600        C  0.18008997  0.60773847  0.66455188     0.79600
O601        O  0.15920537  0.54366702  0.70650834    -0.54200
C602        C  0.21941107  0.57843993  0.73671823     0.79600
C603        C  0.14844807  0.60540299  0.73443969     0.82000
Cd604      Cd  0.18038850  0.58044380  0.70617504     1.37500
O605        O  0.19810579  0.60507878  0.67638837    -0.53000
O606        O  0.16849382  0.61276126  0.73048502    -0.51800
C607        C  0.17426378  0.53244401  0.69561525     0.81900
O608        O  0.14279734  0.58654532  0.72521402    -0.54200
O609        O  0.16233950  0.59712839  0.67120263    -0.52700
O610        O  0.19980333  0.57118114  0.74257231    -0.52700
O611        O  0.19158657  0.54346207  0.68853243    -0.51800
O612        O  0.10800020  0.69507080  0.83366038    -0.53000
C613        C  0.08163575  0.71632473  0.77314536     0.79600
O614        O  0.08924576  0.63994142  0.78419172    -0.54200
C615        C  0.11088481  0.67699646  0.84534765     0.79600
C616        C  0.03551480  0.67130618  0.81467636     0.82000
Cd617      Cd  0.08350275  0.67732532  0.80377821     1.37500
O618        O  0.08965129  0.71826878  0.79327002    -0.53000
O619        O  0.04655465  0.68875124  0.82141376    -0.51800
C620        C  0.10844509  0.64534529  0.77553119     0.81900
O621        O  0.04670960  0.65608852  0.80397538    -0.54200
O622        O  0.07429646  0.69674072  0.76731664    -0.52700
O623        O  0.10042066  0.65919562  0.83859916    -0.52700
O624        O  0.11612482  0.66515117  0.78002685    -0.51800
O625        O  0.77951950  0.28557620  0.41605534    -0.53000
C626        C  0.82068278  0.33773266  0.39495925     0.79600
O627        O  0.84169540  0.29579653  0.45906727    -0.54200
C628        C  0.78145058  0.26550089  0.42419832     0.79600
C629        C  0.85251571  0.26789850  0.39724658     0.82000
Cd630      Cd  0.82048103  0.29608894  0.42225380     1.37500
O631        O  0.80274200  0.32575618  0.39744695    -0.53000
O632        O  0.83233870  0.27152660  0.39007986    -0.51800
C633        C  0.82657182  0.30653929  0.47034996     0.81900
O634        O  0.85826129  0.27740893  0.41593664    -0.54200
O635        O  0.83837548  0.33123579  0.40576551    -0.52700
O636        O  0.80101852  0.25972939  0.43165033    -0.52700
O637        O  0.80917499  0.31351127  0.45936201    -0.51800
O638        O  0.89264701  0.16880617  0.30785651    -0.53000
C639        C  0.91959260  0.22887520  0.28627726     0.79600
O640        O  0.91152353  0.21774167  0.36292859    -0.54200
C641        C  0.89024159  0.15685339  0.32582748     0.79600
C642        C  0.96559758  0.18772665  0.33135158     0.82000
Cd643      Cd  0.91755287  0.19845009  0.32540344     1.37500
O644        O  0.91154180  0.20876377  0.28437758    -0.53000
O645        O  0.95452583  0.18083413  0.31397928    -0.51800
C646        C  0.89257091  0.22680807  0.35731348     0.81900
O647        O  0.95441283  0.19850678  0.34652425    -0.54200
O648        O  0.92688837  0.23476315  0.30586670    -0.52700
O649        O  0.90112388  0.16336805  0.34346892    -0.52700
O650        O  0.88514480  0.22267121  0.33732841    -0.51800
O651        O  0.71161938  0.21799124  0.41718344    -0.53000
C652        C  0.65992467  0.17665100  0.39539263     0.79600
O653        O  0.72003528  0.13897930  0.41615737    -0.54200
C654        C  0.73198946  0.21597014  0.42454805     0.79600
C655        C  0.69125795  0.17097298  0.47088907     0.82000
Cd656      Cd  0.70153447  0.17684278  0.42274284     1.37500
O657        O  0.67231915  0.19436760  0.39734606    -0.53000
O658        O  0.68387837  0.18809004  0.45973910    -0.51800
C659        C  0.72972796  0.14487268  0.39760222     0.81900
O660        O  0.70236810  0.15600238  0.45975621    -0.54200
O661        O  0.66599153  0.15915406  0.40675827    -0.52700
O662        O  0.73809032  0.19628166  0.43138341    -0.52700
O663        O  0.72622263  0.16512695  0.39061242    -0.51800
O664        O  0.78934462  0.08542975  0.28461253    -0.53000
C665        C  0.84091576  0.10733561  0.32601058     0.79600
O666        O  0.78050920  0.08627824  0.36348378    -0.54200
C667        C  0.76899761  0.07800979  0.28660534     0.79600
C668        C  0.80994420  0.03182183  0.33170049     0.82000
Cd669      Cd  0.79939113  0.07990841  0.32577901     1.37500
O670        O  0.82877497  0.10501997  0.30815497    -0.53000
O671        O  0.81714684  0.04296959  0.31451106    -0.51800
C672        C  0.77106912  0.10499222  0.35768423     0.81900
O673        O  0.79889316  0.04293550  0.34672981    -0.54200
O674        O  0.83462883  0.09630478  0.34364225    -0.52700
O675        O  0.76287823  0.07120023  0.30629794    -0.52700
O676        O  0.77486805  0.11216512  0.33754103    -0.51800
O677        O  0.69829030  0.10488714  0.17676065    -0.53000
C678        C  0.71957868  0.07818044  0.23703633     0.79600
O679        O  0.64275817  0.08634833  0.22529669    -0.54200
C680        C  0.68029574  0.10755009  0.16489266     0.79600
C681        C  0.67444167  0.03216831  0.19574151     0.82000
Cd682      Cd  0.68051649  0.08016367  0.20647590     1.37500
O683        O  0.72144695  0.08646025  0.21701045    -0.53000
O684        O  0.69183449  0.04318899  0.18883231    -0.51800
C685        C  0.64842848  0.10512800  0.23466927     0.81900
O686        O  0.65931723  0.04337876  0.20655641    -0.54200
O687        O  0.70005639  0.07059620  0.24277680    -0.52700
O688        O  0.66256180  0.09686748  0.17146383    -0.52700
O689        O  0.66855889  0.11236482  0.23094310    -0.51800
O690        O  0.60813334  0.19482136  0.33394408    -0.53000
C691        C  0.58147606  0.21634533  0.27370290     0.79600
O692        O  0.58962660  0.13957010  0.28500390    -0.54200
C693        C  0.61062452  0.17681740  0.34582768     0.79600
C694        C  0.53550011  0.17141653  0.31470177     0.82000
Cd695      Cd  0.58353070  0.17720913  0.30405441     1.37500
O696        O  0.59048779  0.21795640  0.29343502    -0.53000
O697        O  0.54656979  0.18882730  0.32148719    -0.51800
C698        C  0.60839727  0.14524109  0.27561642     0.81900
O699        O  0.54668685  0.15613615  0.30407811    -0.54200
O700        O  0.57324962  0.19703140  0.26815553    -0.52700
O701        O  0.59990655  0.15913498  0.33917229    -0.52700
O702        O  0.61569167  0.16532968  0.27943630    -0.51800
O703        O  0.69795908  0.16898177  0.11283980    -0.53000
C704        C  0.71917267  0.22902940  0.08612449     0.79600
O705        O  0.65943962  0.19908822  0.05099316    -0.54200
C706        C  0.68003080  0.15702117  0.11548199     0.79600
C707        C  0.64823306  0.22683691  0.11318087     0.82000
Cd708      Cd  0.68014478  0.19855704  0.08808288     1.37500
O709        O  0.72111617  0.20888712  0.09408548    -0.53000
O710        O  0.66839323  0.22307469  0.12032929    -0.51800
C711        C  0.67441461  0.18779522  0.04004792     0.81900
O712        O  0.64242154  0.21739151  0.09447014    -0.54200
O713        O  0.69959105  0.23490704  0.07880035    -0.52700
O714        O  0.66224975  0.16350662  0.10479862    -0.52700
O715        O  0.69144034  0.18044321  0.05135319    -0.51800
O716        O  0.58861261  0.28618626  0.22635191    -0.53000
C717        C  0.61077306  0.33762750  0.18510442     0.79600
O718        O  0.58969160  0.27761934  0.14738642    -0.54200
C719        C  0.58113381  0.26586926  0.22432515     0.79600
C720        C  0.53521648  0.30683124  0.17916967     0.82000
Cd721      Cd  0.58323516  0.29622011  0.18520130     1.37500
O722        O  0.60861306  0.32533053  0.20286994    -0.53000
O723        O  0.54639621  0.31426829  0.19624209    -0.51800
C724        C  0.60831737  0.26801940  0.15321152     0.81900
O725        O  0.54627783  0.29551292  0.16430306    -0.54200
O726        O  0.59954193  0.33154239  0.16752604    -0.52700
O727        O  0.57431769  0.25977902  0.20462568    -0.52700
O728        O  0.61539164  0.27158412  0.17343291    -0.51800
O729        O  0.80303283  0.38946036  0.33335423    -0.53000
C730        C  0.78154504  0.41662558  0.27376635     0.79600
O731        O  0.84156634  0.45157082  0.30341866    -0.54200
C732        C  0.82083175  0.38722684  0.34559265     0.79600
C733        C  0.85269011  0.38954882  0.27570921     0.82000
Cd734      Cd  0.82072131  0.41458079  0.30402272     1.37500
O735        O  0.77971018  0.40858269  0.29388961    -0.53000
O736        O  0.83245318  0.38250693  0.27922488    -0.51800
C737        C  0.82655551  0.46265447  0.31452495     0.81900
O738        O  0.85853629  0.40811265  0.28540115    -0.54200
O739        O  0.80109333  0.42396469  0.26780598    -0.52700
O740        O  0.83845322  0.39831706  0.33938368    -0.52700
O741        O  0.80942428  0.45147547  0.32181725    -0.51800
O742        O  0.91253576  0.27635664  0.21644549    -0.53000
C743        C  0.89040081  0.31763731  0.16497616     0.79600
O744        O  0.91131295  0.35544726  0.22489832    -0.54200
C745        C  0.91991246  0.27835202  0.23681006     0.79600
C746        C  0.96592854  0.32366035  0.19592529     0.82000
Cd747      Cd  0.91788613  0.31754829  0.20647013     1.37500
O748        O  0.89257802  0.29987087  0.17726773    -0.53000
O749        O  0.95473969  0.30668299  0.18829936    -0.51800
C750        C  0.89274712  0.34958953  0.23458863     0.81900
O751        O  0.95487826  0.33838234  0.20743860    -0.54200
O752        O  0.90158274  0.33522430  0.17110927    -0.52700
O753        O  0.92665689  0.29805151  0.24296319    -0.52700
O754        O  0.88576187  0.32932315  0.23114596    -0.51800
O755        O  0.67211931  0.38970137  0.20308523    -0.53000
C756        C  0.73206249  0.41654627  0.22437896     0.79600
O757        O  0.72058471  0.40823912  0.14760774    -0.54200
C758        C  0.66023746  0.38700312  0.18510828     0.79600
C759        C  0.69099760  0.46242714  0.17916866     0.82000
Cd760      Cd  0.70170179  0.41446298  0.18528168     1.37500
O761        O  0.71191883  0.40858282  0.22629593    -0.53000
O762        O  0.68385803  0.45135666  0.19643476    -0.51800
C763        C  0.72996725  0.38947948  0.15333932     0.81900
O764        O  0.70203507  0.45127370  0.16416416    -0.54200
O765        O  0.73800368  0.42376939  0.20478109    -0.52700
O766        O  0.66676430  0.39766225  0.16733886    -0.52700
O767        O  0.72620693  0.38226013  0.17347360    -0.51800
O768        O  0.82927414  0.29953547  0.11258905    -0.53000
C769        C  0.76861914  0.27848672  0.08641478     0.79600
O770        O  0.77970560  0.35483191  0.09419821    -0.54200
C771        C  0.84087186  0.31763763  0.11563634     0.79600
C772        C  0.81017394  0.32339392  0.04046438     0.82000
Cd773      Cd  0.79922532  0.31742443  0.08840495     1.37500
O774        O  0.78857932  0.27660443  0.09484264    -0.53000
O775        O  0.81681933  0.30591450  0.05150744    -0.51800
C776        C  0.77093978  0.34939320  0.11334017     0.81900
O777        O  0.79953288  0.33866739  0.05164095    -0.54200
O778        O  0.76294391  0.29798845  0.07873845    -0.52700
O779        O  0.83398117  0.33552881  0.10541691    -0.52700
O780        O  0.77533273  0.32954146  0.12097175    -0.51800
O781        O  0.67219628  0.79945769  0.39714995    -0.53000
C782        C  0.73213401  0.77804306  0.42441255     0.79600
O783        O  0.72077831  0.85466783  0.41623300    -0.54200
C784        C  0.66008937  0.81733681  0.39484158     0.79600
C785        C  0.69095802  0.82323128  0.47020571     0.82000
Cd786      Cd  0.70165161  0.81708905  0.42223353     1.37500
O787        O  0.71200568  0.77607390  0.41640872    -0.53000
O788        O  0.68408901  0.80579281  0.45923113    -0.51800
C789        C  0.72996313  0.84906854  0.39733754     0.81900
O790        O  0.70170031  0.83836972  0.45894983    -0.54200
O791        O  0.73799964  0.79765898  0.43163693    -0.52700
O792        O  0.66643766  0.83495436  0.40585059    -0.52700
O793        O  0.72596848  0.82905483  0.38992600    -0.51800
O794        O  0.78888347  0.90812095  0.28448603    -0.53000
C795        C  0.84087709  0.88694631  0.32584060     0.79600
O796        O  0.79914111  0.95102329  0.34667219    -0.54200
C797        C  0.76878419  0.91621530  0.28636191     0.79600
C798        C  0.77096723  0.88917861  0.35740085     0.82000
Cd799      Cd  0.79922492  0.91421677  0.32547412     1.37500
O800        O  0.82902252  0.88953639  0.30782618    -0.53000
O801        O  0.77517947  0.88171579  0.33744591    -0.51800
C802        C  0.80991719  0.96223394  0.33151949     0.81900
O803        O  0.77989281  0.90820553  0.36296525    -0.54200
O804        O  0.83424810  0.89763995  0.34355329    -0.52700
O805        O  0.76290159  0.92356870  0.30592982    -0.52700
O806        O  0.81680840  0.95120204  0.31412430    -0.51800
O807        O  0.77981498  0.70846636  0.41690457    -0.53000
C808        C  0.82105576  0.65695541  0.39508719     0.79600
O809        O  0.85890080  0.71667532  0.41577439    -0.54200
C810        C  0.78172244  0.72871227  0.42461383     0.79600
C811        C  0.82676681  0.68807527  0.47062981     0.82000
Cd812      Cd  0.82093496  0.69846940  0.42253061     1.37500
O813        O  0.80337537  0.66941408  0.39700692    -0.53000
O814        O  0.80976424  0.68055367  0.45940014    -0.51800
C815        C  0.85289865  0.72669977  0.39743114     0.81900
O816        O  0.84165638  0.69938281  0.45958945    -0.54200
O817        O  0.83854924  0.66292950  0.40650980    -0.52700
O818        O  0.80135393  0.73479112  0.43163746    -0.52700
O819        O  0.83251181  0.72355530  0.39064915    -0.51800
O820        O  0.89306485  0.82573264  0.30799554    -0.53000
C821        C  0.91998613  0.76580973  0.28645601     0.79600
O822        O  0.95501084  0.79577087  0.34653425    -0.54200
C823        C  0.89049285  0.83767293  0.32595034     0.79600
C824        C  0.89292754  0.76786542  0.35750103     0.82000
Cd825      Cd  0.91801175  0.79620007  0.32563510     1.37500
O826        O  0.91234408  0.78607646  0.28450831    -0.53000
O827        O  0.88564520  0.77187321  0.33743512    -0.51800
C828        C  0.96602869  0.80697050  0.33154602     0.81900
O829        O  0.91178012  0.77707007  0.36323220    -0.54200
O830        O  0.92699001  0.75976618  0.30610545    -0.52700
O831        O  0.90132002  0.83121676  0.34365326    -0.52700
O832        O  0.95480127  0.81424137  0.31443387    -0.51800
O833        O  0.80293764  0.60532562  0.33351851    -0.53000
C834        C  0.78139325  0.57824657  0.27360897     0.79600
O835        O  0.85823329  0.58655374  0.28518079    -0.54200
C836        C  0.82083609  0.60757640  0.34561155     0.79600
C837        C  0.82640274  0.53224628  0.31453188     0.82000
Cd838      Cd  0.82050732  0.58029598  0.30398000     1.37500
O839        O  0.77956259  0.58651359  0.29364388    -0.53000
O840        O  0.80903787  0.54330703  0.32145817    -0.51800
C841        C  0.85249984  0.60527541  0.27572881     0.81900
O842        O  0.84158490  0.54343976  0.30377988    -0.54200
O843        O  0.80091839  0.57073999  0.26776937    -0.52700
O844        O  0.83842534  0.59653378  0.33923451    -0.52700
O845        O  0.83233462  0.61245220  0.27939081    -0.51800
O846        O  0.89299548  0.69486672  0.17657511    -0.53000
C847        C  0.91969243  0.71635362  0.23694581     0.79600
O848        O  0.91159861  0.63976035  0.22583640    -0.54200
C849        C  0.89026316  0.67678739  0.16486003     0.79600
C850        C  0.96552521  0.67112661  0.19562866     0.82000
Cd851      Cd  0.91757886  0.67723714  0.20648357     1.37500
O852        O  0.91132293  0.71818705  0.21695111    -0.53000
O853        O  0.95452905  0.68860466  0.18889383    -0.51800
C854        C  0.89262229  0.64535089  0.23486116     0.81900
O855        O  0.95429959  0.65591906  0.20630699    -0.54200
O856        O  0.92728386  0.69683896  0.24269995    -0.52700
O857        O  0.90082685  0.65904940  0.17161943    -0.52700
O858        O  0.88518657  0.66532989  0.23072328    -0.51800
O859        O  0.58903835  0.77622332  0.29391149    -0.53000
C860        C  0.61063720  0.81745529  0.34543380     0.79600
O861        O  0.58986379  0.85508911  0.28517410    -0.54200
C862        C  0.58132278  0.77809086  0.27366214     0.79600
C863        C  0.53526045  0.82331559  0.31424495     0.82000
Cd864      Cd  0.58333842  0.81732242  0.30383520     1.37500
O865        O  0.60860188  0.79971461  0.33308596    -0.53000
O866        O  0.54639505  0.80618247  0.32160855    -0.51800
C867        C  0.60850495  0.84924480  0.27562367     0.81900
O868        O  0.54638240  0.83823970  0.30306584    -0.54200
O869        O  0.59936970  0.83500018  0.33931987    -0.52700
O870        O  0.57427402  0.79769665  0.26754065    -0.52700
O871        O  0.61555760  0.82902877  0.27923053    -0.51800
O872        O  0.72142372  0.90897858  0.21650265    -0.53000
C873        C  0.68013378  0.88734369  0.16473891     0.79600
O874        O  0.64273449  0.90823492  0.22543475    -0.54200
C875        C  0.71940614  0.91651985  0.23680281     0.79600
C876        C  0.67428992  0.96260825  0.19575802     0.82000
Cd877      Cd  0.68032017  0.91458022  0.20635356     1.37500
O878        O  0.69801534  0.88969989  0.17683430    -0.53000
O879        O  0.69154778  0.95150963  0.18864087    -0.51800
C880        C  0.64845850  0.88933377  0.23453984     0.81900
O881        O  0.65924415  0.95146563  0.20675462    -0.54200
O882        O  0.66245856  0.89825097  0.17112206    -0.52700
O883        O  0.69973010  0.92344385  0.24284418    -0.52700
O884        O  0.66851790  0.88206359  0.23048878    -0.51800
O885        O  0.71172506  0.58586540  0.22608864    -0.53000
C886        C  0.66008529  0.60731887  0.18474194     0.79600
O887        O  0.72047243  0.58637706  0.14738242    -0.54200
C888        C  0.73189079  0.57793640  0.22421088     0.79600
C889        C  0.69096933  0.53196506  0.17904107     0.82000
Cd890      Cd  0.70159716  0.57995267  0.18504705     1.37500
O891        O  0.67207239  0.60485818  0.20268403    -0.53000
O892        O  0.68358856  0.54312917  0.19614681    -0.51800
C893        C  0.72993772  0.60505922  0.15322436     0.81900
O894        O  0.70222497  0.54303285  0.16413467    -0.54200
O895        O  0.66652808  0.59645590  0.16706237    -0.52700
O896        O  0.73785285  0.57064867  0.20464254    -0.52700
O897        O  0.72618841  0.61217521  0.17339675    -0.51800
O898        O  0.78909911  0.71786723  0.09393776    -0.53000
C899        C  0.84090241  0.67657318  0.11534334     0.79600
O900        O  0.78029056  0.63924390  0.09434184    -0.54200
C901        C  0.76889003  0.71594692  0.08613168     0.79600
C902        C  0.80998449  0.67105393  0.03995224     0.82000
Cd903      Cd  0.79932194  0.67685186  0.08800858     1.37500
O904        O  0.82892899  0.69451233  0.11281774    -0.53000
O905        O  0.81729225  0.68813135  0.05120041    -0.51800
C906        C  0.77110557  0.64498540  0.11320225     0.81900
O907        O  0.79877618  0.65606524  0.05096020    -0.54200
O908        O  0.83442985  0.65886678  0.10453990    -0.52700
O909        O  0.76291872  0.69635384  0.07892991    -0.52700
O910        O  0.77508434  0.66506311  0.12044670    -0.51800
O911        O  0.60843176  0.66885242  0.20268938    -0.53000
C912        C  0.58149146  0.72863192  0.22428032     0.79600
O913        O  0.58993357  0.71735222  0.14741666    -0.54200
C914        C  0.61078098  0.65682271  0.18476558     0.79600
C915        C  0.53553695  0.68797206  0.17903314     0.82000
Cd916      Cd  0.58357084  0.69844637  0.18506883     1.37500
O917        O  0.58983495  0.70862586  0.22603572    -0.53000
O918        O  0.54660173  0.68078449  0.19629205    -0.51800
C919        C  0.60862238  0.72681344  0.15323939     0.81900
O920        O  0.54672507  0.69895165  0.16401092    -0.54200
O921        O  0.57389262  0.73449853  0.20479930    -0.52700
O922        O  0.59987658  0.66327409  0.16711285    -0.52700
O923        O  0.61576109  0.72307077  0.17340474    -0.51800
O924        O  0.72145886  0.78553213  0.09469539    -0.53000
C925        C  0.68027294  0.83789928  0.11538297     0.79600
O926        O  0.65920002  0.79666523  0.05164047    -0.54200
C927        C  0.71952556  0.76552304  0.08640161     0.79600
C928        C  0.64865809  0.76791664  0.11331781     0.82000
Cd929      Cd  0.68059863  0.79617574  0.08831338     1.37500
O930        O  0.69834442  0.82617056  0.11263982    -0.53000
O931        O  0.66847601  0.77241614  0.12097906    -0.51800
C932        C  0.67461940  0.80695042  0.04033315     0.81900
O933        O  0.64323371  0.77657401  0.09412127    -0.54200
O934        O  0.66248690  0.83111356  0.10491548    -0.52700
O935        O  0.69998776  0.75983305  0.07882001    -0.52700
O936        O  0.69228080  0.81331570  0.05125691    -0.51800
O937        O  0.08992064  0.27669929  0.21719728    -0.53000
C938        C  0.11058791  0.31785003  0.16472939     0.79600
O939        O  0.04683590  0.33900774  0.20603388    -0.54200
C940        C  0.08157980  0.27861113  0.23719365     0.79600
C941        C  0.10848006  0.34957944  0.23475249     0.82000
Cd942      Cd  0.08350012  0.31756296  0.20650277     1.37500
O943        O  0.10779089  0.29977065  0.17643006    -0.53000
O944        O  0.11610498  0.32972734  0.23035428    -0.51800
C945        C  0.03549970  0.32359010  0.19577933     0.81900
O946        O  0.08932180  0.35500467  0.22600940    -0.54200
O947        O  0.10016730  0.33564346  0.17155797    -0.52700
O948        O  0.07396236  0.29813861  0.24286528    -0.52700
O949        O  0.04640545  0.30592726  0.18939547    -0.51800
O950        O  0.22149118  0.40821058  0.29368328    -0.53000
C951        C  0.18036661  0.38741501  0.34571395     0.79600
O952        O  0.15929578  0.45134738  0.30399822    -0.54200
C953        C  0.21972128  0.41654503  0.27367387     0.79600
C954        C  0.14855419  0.38962086  0.27573190     0.82000
Cd955      Cd  0.18056977  0.41459218  0.30401282     1.37500
O956        O  0.19832887  0.38995437  0.33378056    -0.53000
O957        O  0.16856319  0.38220751  0.27977547    -0.51800
C958        C  0.17457157  0.46263556  0.31451653     0.81900
O959        O  0.14297801  0.40855945  0.28483492    -0.54200
O960        O  0.16265183  0.39815639  0.33916611    -0.52700
O961        O  0.20023015  0.42413461  0.26782592    -0.52700
O962        O  0.19206697  0.45166760  0.32125707    -0.51800
O963        O  0.21182355  0.27679900  0.09386155    -0.53000
C964        C  0.15996132  0.31809010  0.11525791     0.79600
O965        O  0.22081604  0.35539047  0.09425787    -0.54200
C966        C  0.23207211  0.27877193  0.08617779     0.79600
C967        C  0.19090665  0.32381920  0.03998794     0.82000
Cd968      Cd  0.20159592  0.31785658  0.08801508     1.37500
O969        O  0.17191597  0.30014564  0.11268706    -0.53000
O970        O  0.18353437  0.30674290  0.05119413    -0.51800
C971        C  0.22984369  0.34971397  0.11321601     0.81900
O972        O  0.20220296  0.33872023  0.05102369    -0.54200
O973        O  0.16649653  0.33584109  0.10456488    -0.52700
O974        O  0.23803900  0.29838923  0.07904794    -0.52700
O975        O  0.22565900  0.32971958  0.12057798    -0.51800
O976        O  0.28951819  0.40927402  0.22623366    -0.53000
C977        C  0.34090924  0.38734984  0.18499684     0.79600
O978        O  0.28087293  0.40811357  0.14723743    -0.54200
C979        C  0.26923153  0.41687993  0.22430976     0.79600
C980        C  0.30990348  0.46280881  0.17902346     0.82000
Cd981      Cd  0.29940773  0.41477082  0.18507115     1.37500
O982        O  0.32844196  0.38927683  0.20266803    -0.53000
O983        O  0.31736769  0.45165165  0.19610056    -0.51800
C984        C  0.27111661  0.38961651  0.15318594     0.81900
O985        O  0.29857764  0.45172648  0.16417624    -0.54200
O986        O  0.33494296  0.39875312  0.16748712    -0.52700
O987        O  0.26310928  0.42383835  0.20466856    -0.52700
O988        O  0.27456896  0.38269667  0.17347737    -0.51800
O989        O  0.30292501  0.16873396  0.11257121    -0.53000
C990        C  0.28166172  0.22941713  0.08657753     0.79600
O991        O  0.35816361  0.21827967  0.09440502    -0.54200
C992        C  0.32106863  0.15718232  0.11558221     0.79600
C993        C  0.32669342  0.18818720  0.04041884     0.82000
Cd994      Cd  0.32070940  0.19889436  0.08843713     1.37500
O995        O  0.27986982  0.20946351  0.09503269    -0.53000
O996        O  0.30915028  0.18160260  0.05139716    -0.51800
C997        C  0.35262864  0.22715600  0.11346775     0.81900
O998        O  0.34201321  0.19866936  0.05168361    -0.54200
O999        O  0.30112812  0.23513179  0.07883283    -0.52700
O1000       O  0.33891997  0.16412320  0.10533404    -0.52700
O1001       O  0.33269614  0.22290514  0.12096695    -0.51800
O1002       O  0.39298582  0.32609851  0.20320520    -0.53000
C1003       C  0.41970835  0.26593957  0.22454172     0.79600
O1004       O  0.41150913  0.27734378  0.14786462    -0.54200
C1005       C  0.39033348  0.33793601  0.18519204     0.79600
C1006       C  0.46565137  0.30696946  0.17934780     0.82000
Cd1007     Cd  0.41766130  0.29636907  0.18547415     1.37500
O1008       O  0.41149201  0.28598634  0.22642155    -0.53000
O1009       O  0.45464840  0.31397800  0.19671536    -0.51800
C1010       C  0.39267199  0.26809340  0.15354451     0.81900
O1011       O  0.45441541  0.29613204  0.16425854    -0.54200
O1012       O  0.42719209  0.26013062  0.20500143    -0.52700
O1013       O  0.40099802  0.33133120  0.16745502    -0.52700
O1014       O  0.38536999  0.27199451  0.17362145    -0.51800
O1015       O  0.30337040  0.10555158  0.17720688    -0.53000
C1016       C  0.28164747  0.07808947  0.23662995     0.79600
O1017       O  0.34158732  0.04302459  0.20727129    -0.54200
C1018       C  0.32115238  0.10766476  0.16492572     0.79600
C1019       C  0.35291451  0.10505103  0.23460587     0.82000
Cd1020     Cd  0.32088445  0.08008192  0.20634793     1.37500
O1021       O  0.27965525  0.08541361  0.21624593    -0.53000
O1022       O  0.33268547  0.11212694  0.23108876    -0.51800
C1023       C  0.32685632  0.03206901  0.19567890     0.81900
O1024       O  0.35873728  0.08646683  0.22492993    -0.54200
O1025       O  0.30135300  0.07137819  0.24281560    -0.52700
O1026       O  0.33869497  0.09639570  0.17104925    -0.52700
O1027       O  0.30994036  0.04334200  0.18802768    -0.51800
O1028       O  0.39204783  0.19454341  0.33293761    -0.53000
C1029       C  0.41986654  0.21636272  0.27385262     0.79600
O1030       O  0.45493181  0.15651706  0.30307554    -0.54200
C1031       C  0.39030124  0.17691929  0.34549578     0.79600
C1032       C  0.39286177  0.14505138  0.27576613     0.82000
Cd1033     Cd  0.41781393  0.17711220  0.30402643     1.37500
O1034       O  0.41223341  0.21825411  0.29413213    -0.53000
O1035       O  0.38598589  0.16539985  0.27893171    -0.51800
C1036       C  0.46590329  0.17133788  0.31453912     0.81900
O1037       O  0.41123348  0.13912808  0.28578658    -0.54200
O1038       O  0.42682874  0.19673250  0.26771163    -0.52700
O1039       O  0.40190903  0.15951330  0.33962830    -0.52700
O1040       O  0.45461627  0.18826879  0.32213451    -0.51800
O1041       O  0.17188828  0.10489182  0.30758254    -0.53000
C1042       C  0.23220564  0.07839088  0.28612502     0.79600
O1043       O  0.22114886  0.08619365  0.36276916    -0.54200
C1044       C  0.16022378  0.10773411  0.32567951     0.79600
C1045       C  0.19097985  0.03235223  0.33132500     0.82000
Cd1046     Cd  0.20177933  0.08033500  0.32526571     1.37500
O1047       O  0.21216868  0.08665261  0.28431219    -0.53000
O1048       O  0.18410922  0.04338711  0.31392183    -0.51800
C1049       C  0.23014352  0.10519836  0.35724328     0.81900
O1050       O  0.20175815  0.04355158  0.34648345    -0.54200
O1051       O  0.23803135  0.07084781  0.30563979    -0.52700
O1052       O  0.16698839  0.09722489  0.34345122    -0.52700
O1053       O  0.22595960  0.11271283  0.33729970    -0.51800
O1054       O  0.32887075  0.19498766  0.39736034    -0.53000
C1055       C  0.26879673  0.21643398  0.42424596     0.79600
O1056       O  0.28053302  0.13957305  0.41603539    -0.54200
C1057       C  0.34086583  0.17705079  0.39492447     0.79600
C1058       C  0.30975880  0.17133668  0.47033320     0.82000
Cd1059     Cd  0.29926085  0.17733126  0.42226028     1.37500
O1060       O  0.28890913  0.21832145  0.41618425    -0.53000
O1061       O  0.31672410  0.18870319  0.45930785    -0.51800
C1062       C  0.27107592  0.14526905  0.39730031     0.81900
O1063       O  0.29900509  0.15619197  0.45909393    -0.54200
O1064       O  0.26290970  0.19685608  0.43156415    -0.52700
O1065       O  0.33440858  0.15939862  0.40580979    -0.52700
O1066       O  0.27472179  0.16542243  0.39009079    -0.51800
O1067       O  0.08877194  0.20883171  0.28466402    -0.53000
C1068       C  0.11077923  0.15717157  0.32593192     0.79600
O1069       O  0.08968640  0.21742939  0.36353547    -0.54200
C1070       C  0.08128463  0.22914612  0.28671579     0.79600
C1071       C  0.03520598  0.18787168  0.33160286     0.82000
Cd1072     Cd  0.08327000  0.19863066  0.32578592     1.37500
O1073       O  0.10850165  0.16938857  0.30812270    -0.53000
O1074       O  0.04652551  0.18034951  0.31466062    -0.51800
C1075       C  0.10844856  0.22678607  0.35775321     0.81900
O1076       O  0.04614323  0.19934018  0.34645031    -0.54200
O1077       O  0.09968341  0.16336386  0.34356182    -0.52700
O1078       O  0.07441608  0.23517280  0.30641551    -0.52700
O1079       O  0.11561867  0.22296750  0.33761431    -0.51800
O1080       O  0.22145671  0.28633755  0.41707629    -0.53000
C1081       C  0.18018474  0.33797166  0.39513518     0.79600
O1082       O  0.14253293  0.27780835  0.41614278    -0.54200
C1083       C  0.21944083  0.26604023  0.42461888     0.79600
C1084       C  0.17430359  0.30700499  0.47067663     0.82000
Cd1085     Cd  0.18031624  0.29646983  0.42261664     1.37500
O1086       O  0.19801482  0.32579824  0.39747694    -0.53000
O1087       O  0.19132150  0.31453767  0.45948267    -0.51800
C1088       C  0.14840801  0.26814226  0.39756800     0.81900
O1089       O  0.15947386  0.29564412  0.45961187    -0.54200
O1090       O  0.16252197  0.33170342  0.40612840    -0.52700
O1091       O  0.19976713  0.26001498  0.43155374    -0.52700
O1092       O  0.16862374  0.27174065  0.39050116    -0.51800
O1093       O  0.39298170  0.79975497  0.33347759    -0.53000
C1094       C  0.41964754  0.77831842  0.27331761     0.79600
O1095       O  0.41161013  0.85506052  0.28453126    -0.54200
C1096       C  0.39027679  0.81778240  0.34527618     0.79600
C1097       C  0.46566309  0.82337230  0.31435764     0.82000
Cd1098     Cd  0.41763183  0.81745784  0.30368592     1.37500
O1099       O  0.41114878  0.77657303  0.29326019    -0.53000
O1100       O  0.45459789  0.80600603  0.32125630    -0.51800
C1101       C  0.39272678  0.84944767  0.27532576     0.81900
O1102       O  0.45446916  0.83857479  0.30363102    -0.54200
O1103       O  0.42737679  0.79777313  0.26755651    -0.52700
O1104       O  0.40091928  0.83551740  0.33863940    -0.52700
O1105       O  0.38535812  0.82941304  0.27928833    -0.51800
O1106       O  0.30291738  0.89000303  0.17632550    -0.53000
C1107       C  0.28160720  0.91654314  0.23675254     0.79600
O1108       O  0.35801336  0.90874477  0.22576301    -0.54200
C1109       C  0.32089791  0.88753632  0.16440011     0.79600
C1110       C  0.32663365  0.96252732  0.19547468     0.82000
Cd1111     Cd  0.32061184  0.91455338  0.20617264     1.37500
O1112       O  0.27966315  0.90842338  0.21666909    -0.53000
O1113       O  0.30896222  0.95163849  0.18908570    -0.51800
C1114       C  0.35263885  0.88952273  0.23437936     0.81900
O1115       O  0.34204895  0.95118750  0.20573815    -0.54200
O1116       O  0.30119274  0.92391076  0.24255704    -0.52700
O1117       O  0.33860023  0.89824658  0.17101699    -0.52700
O1118       O  0.33282489  0.88185353  0.22987934    -0.51800
O1119       O  0.41196949  0.70869354  0.22574265    -0.53000
C1120       C  0.39037026  0.65718320  0.18454318     0.79600
O1121       O  0.41110418  0.71703854  0.14678536    -0.54200
C1122       C  0.41999510  0.72882150  0.22391919     0.79600
C1123       C  0.46594483  0.68806044  0.17877052     0.82000
Cd1124     Cd  0.41788790  0.69862685  0.18467795     1.37500
O1125       O  0.39269486  0.66936534  0.20236708    -0.53000
O1126       O  0.45467555  0.68041281  0.19568871    -0.51800
C1127       C  0.39274312  0.72700302  0.15283338     0.81900
O1128       O  0.45495427  0.69954986  0.16397785    -0.54200
O1129       O  0.40142931  0.66339722  0.16690117    -0.52700
O1130       O  0.42736045  0.73477880  0.20437756    -0.52700
O1131       O  0.38596799  0.72373080  0.17320190    -0.51800
O1132       O  0.30320627  0.82591695  0.11292157    -0.53000
C1133       C  0.28164596  0.76607383  0.08592004     0.79600
O1134       O  0.34157456  0.79602362  0.05081289    -0.54200
C1135       C  0.32100324  0.83818490  0.11496853     0.79600
C1136       C  0.35272789  0.76830238  0.11296864     0.82000
Cd1137     Cd  0.32074810  0.79652111  0.08781536     1.37500
O1138       O  0.27969451  0.78628486  0.09370656    -0.53000
O1139       O  0.33267567  0.77231168  0.12027654    -0.51800
C1140       C  0.32656275  0.80717073  0.03976414     0.81900
O1141       O  0.35840806  0.77749277  0.09409545    -0.54200
O1142       O  0.30124952  0.76013545  0.07870784    -0.52700
O1143       O  0.33856647  0.83194421  0.10379816    -0.52700
O1144       O  0.30941550  0.81440410  0.05096435    -0.51800
O1145       O  0.17168090  0.69506799  0.11248242    -0.53000
C1146       C  0.23226948  0.71650318  0.08628950     0.79600
O1147       O  0.22142318  0.64008465  0.09383649    -0.54200
C1148       C  0.15996135  0.67698594  0.11515109     0.79600
C1149       C  0.19109359  0.67141310  0.04010564     0.82000
Cd1150     Cd  0.20175479  0.67743722  0.08812182     1.37500
O1151       O  0.21222825  0.71834690  0.09453475    -0.53000
O1152       O  0.18473812  0.68910380  0.05098285    -0.51800
C1153       C  0.23007775  0.64545219  0.11304816     0.81900
O1154       O  0.20131877  0.65599298  0.05146902    -0.54200
O1155       O  0.23806838  0.69698568  0.07874327    -0.52700
O1156       O  0.16678501  0.65924867  0.10463244    -0.52700
O1157       O  0.22557564  0.66525053  0.12075202    -0.51800
O1158       O  0.32923554  0.60488610  0.20276889    -0.53000
C1159       C  0.26906707  0.57832400  0.22411762     0.79600
O1160       O  0.28048147  0.58659430  0.14729298    -0.54200
C1161       C  0.34093603  0.60775193  0.18469965     0.79600
C1162       C  0.31008479  0.53237692  0.17898551     0.82000
Cd1163     Cd  0.29939582  0.58036859  0.18498411     1.37500
O1164       O  0.28886782  0.58715910  0.22578126    -0.53000
O1165       O  0.31723184  0.54347568  0.19623659    -0.51800
C1166       C  0.27102074  0.60530452  0.15304764     0.81900
O1167       O  0.29910519  0.54352521  0.16393005    -0.54200
O1168       O  0.26345758  0.57023017  0.20476215    -0.52700
O1169       O  0.33422272  0.59725596  0.16690149    -0.52700
O1170       O  0.27471918  0.61247673  0.17320787    -0.51800
O1171       O  0.10859237  0.69450814  0.17689393    -0.53000
C1172       C  0.08111540  0.71637594  0.23621679     0.79600
O1173       O  0.04618398  0.65616526  0.20690938    -0.54200
C1174       C  0.11047502  0.67679598  0.16448064     0.79600
C1175       C  0.10830965  0.64514333  0.23427901     0.82000
Cd1176     Cd  0.08313844  0.67706809  0.20605169     1.37500
O1177       O  0.08815041  0.71837061  0.21573333    -0.53000
O1178       O  0.11549768  0.66526758  0.23043399    -0.51800
C1179       C  0.03508421  0.67101035  0.19559715     0.81900
O1180       O  0.08953218  0.63937911  0.22494250    -0.54200
O1181       O  0.07472310  0.69662315  0.24256706    -0.52700
O1182       O  0.09907674  0.65932148  0.17054109    -0.52700
O1183       O  0.04622948  0.68808500  0.18813223    -0.51800
O1184       O  0.22149247  0.58594358  0.29373600    -0.53000
C1185       C  0.18037383  0.60784175  0.34516205     0.79600
O1186       O  0.14243140  0.58689036  0.28547946    -0.54200
C1187       C  0.21959360  0.57815760  0.27351693     0.79600
C1188       C  0.17446113  0.53221243  0.31429993     0.82000
Cd1189     Cd  0.18040303  0.58026015  0.30374915     1.37500
O1190       O  0.19807433  0.60576297  0.33275985    -0.53000
O1191       O  0.19146009  0.54342800  0.32184785    -0.51800
C1192       C  0.14837840  0.60525057  0.27546502     0.81900
O1193       O  0.15964206  0.54324258  0.30288588    -0.54200
O1194       O  0.16282679  0.59650828  0.33918446    -0.52700
O1195       O  0.19998475  0.57105296  0.26746618    -0.52700
O1196       O  0.16873380  0.61210182  0.27865212    -0.51800
O1197       O  0.28953892  0.77668394  0.41682690    -0.53000
C1198       C  0.34087750  0.81797739  0.39477366     0.79600
O1199       O  0.28105779  0.85567785  0.41569547    -0.54200
C1200       C  0.26929684  0.77858702  0.42454981     0.79600
C1201       C  0.30999844  0.82380749  0.47044663     0.82000
Cd1202     Cd  0.29947992  0.81781710  0.42238849     1.37500
O1203       O  0.32872212  0.80014404  0.39714193    -0.53000
O1204       O  0.31791856  0.80703985  0.45914210    -0.51800
C1205       C  0.27116760  0.84968918  0.39727338     0.81900
O1206       O  0.29827459  0.83843341  0.45948559    -0.54200
O1207       O  0.33465157  0.83562175  0.40582294    -0.52700
O1208       O  0.26320784  0.79821097  0.43156560    -0.52700
O1209       O  0.27448915  0.82935636  0.39041890    -0.51800
O1210       O  0.21180541  0.90944918  0.28418817    -0.53000
C1211       C  0.16014159  0.88740505  0.32531413     0.79600
O1212       O  0.22069928  0.90846449  0.36300614    -0.54200
C1213       C  0.23216168  0.91681703  0.28625354     0.79600
C1214       C  0.19106664  0.96279019  0.33139029     0.82000
Cd1215     Cd  0.20170897  0.91476314  0.32534320     1.37500
O1216       O  0.17248645  0.88956507  0.30758336    -0.53000
O1217       O  0.18399721  0.95170465  0.31410474    -0.51800
C1218       C  0.22993318  0.88962343  0.35729469     0.81900
O1219       O  0.20204287  0.95163769  0.34644950    -0.54200
O1220       O  0.16626026  0.89854182  0.34294083    -0.52700
O1221       O  0.23826676  0.92352797  0.30598484    -0.52700
O1222       O  0.22597192  0.88234939  0.33721893    -0.51800
O1223       O  0.19845903  0.66928743  0.39711987    -0.53000
C1224       C  0.21983989  0.72918858  0.42419030     0.79600
O1225       O  0.14295477  0.71767711  0.41551063    -0.54200
C1226       C  0.18048893  0.65738469  0.39448962     0.79600
C1227       C  0.17453587  0.68825875  0.46991034     0.82000
Cd1228     Cd  0.18067926  0.69890963  0.42190516     1.37500
O1229       O  0.22164105  0.70921610  0.41578163    -0.53000
O1230       O  0.19174969  0.68099960  0.45882797    -0.51800
C1231       C  0.14876710  0.72721198  0.39685412     0.81900
O1232       O  0.15958197  0.69935933  0.45874418    -0.54200
O1233       O  0.20032386  0.73500545  0.43173277    -0.52700
O1234       O  0.16274890  0.66391425  0.40519785    -0.52700
O1235       O  0.16897614  0.72360810  0.38976948    -0.51800
O1236       O  0.10806316  0.82616328  0.30699945    -0.53000
C1237       C  0.08147859  0.76588474  0.28561287     0.79600
O1238       O  0.08957109  0.77689508  0.36221595    -0.54200
C1239       C  0.11075991  0.83795644  0.32503405     0.79600
C1240       C  0.03558999  0.80699674  0.33103323     0.82000
Cd1241     Cd  0.08356463  0.79628598  0.32475409     1.37500
O1242       O  0.08951186  0.78600049  0.28372040    -0.53000
O1243       O  0.04649321  0.81374544  0.31350383    -0.51800
C1244       C  0.10865561  0.76805590  0.35669953     0.81900
O1245       O  0.04690992  0.79633892  0.34619089    -0.54200
O1246       O  0.07423835  0.75996499  0.30521172    -0.52700
O1247       O  0.10020491  0.83125634  0.34279923    -0.52700
O1248       O  0.11615482  0.77232357  0.33676798    -0.51800
C1249       C  0.12138849  0.75372752  0.37223878    -0.08500
C1250       C  0.13324329  0.74155240  0.38411706    -0.10000
C1251       C  0.14066758  0.87214536  0.32559347    -0.08500
C1252       C  0.12599165  0.85744753  0.32548933    -0.10000
C1253       C  0.25357031  0.75955101  0.42491209    -0.08500
C1254       C  0.23888186  0.74490418  0.42478358    -0.10000
C1255       C  0.25671239  0.86513922  0.38456147    -0.08500
C1256       C  0.24439087  0.87692692  0.37275747    -0.10000
C1257       C  0.18003509  0.62320566  0.36455439    -0.08500
C1258       C  0.18008275  0.63793242  0.37920412    -0.10000
C1259       C  0.08080321  0.73546353  0.25190382    -0.08500
C1260       C  0.08093812  0.75014105  0.26657411    -0.10000
C1261       C  0.13286117  0.61790260  0.26102504    -0.08500
C1262       C  0.12103440  0.62968404  0.24871743    -0.10000
C1263       C  0.25330422  0.57786283  0.24312449    -0.08500
C1264       C  0.23862875  0.57779439  0.25778670    -0.10000
C1265       C  0.14042483  0.67645558  0.13032589    -0.08500
C1266       C  0.12571359  0.67637408  0.14499210    -0.10000
C1267       C  0.25666007  0.61801115  0.13751928    -0.08500
C1268       C  0.24445770  0.62989592  0.12569902    -0.10000
C1269       C  0.26268182  0.75023175  0.08567383    -0.08500
C1270       C  0.24805007  0.73551479  0.08581641    -0.10000
C1271       C  0.37504087  0.63776656  0.18419322    -0.08500
C1272       C  0.36035423  0.62307890  0.18425741    -0.10000
C1273       C  0.38001090  0.74148611  0.13741421    -0.08500
C1274       C  0.36819531  0.75382960  0.12565517    -0.10000
C1275       C  0.26263622  0.91704675  0.25258076    -0.08500
C1276       C  0.24796479  0.91715560  0.26725920    -0.10000
C1277       C  0.32136905  0.87237236  0.14486081    -0.08500
C1278       C  0.32142234  0.85770029  0.13016176    -0.10000
C1279       C  0.42016814  0.75927765  0.25758601    -0.08500
C1280       C  0.42030370  0.74457501  0.24294563    -0.10000
C1281       C  0.37496390  0.81825365  0.36471451    -0.08500
C1282       C  0.36028223  0.81832974  0.37941613    -0.10000
C1283       C  0.38005365  0.86498938  0.26094351    -0.08500
C1284       C  0.36819351  0.87683113  0.24873347    -0.10000
C1285       C  0.12116722  0.24124570  0.37319303    -0.08500
C1286       C  0.13296527  0.25361454  0.38493241    -0.10000
C1287       C  0.23841056  0.25019755  0.42489357    -0.08500
C1288       C  0.25303331  0.23546575  0.42475358    -0.10000
C1289       C  0.18787309  0.00793751  0.33315604    -0.08500
C1290       C  0.18791870  0.98720369  0.33318796    -0.10000
C1291       C  0.12609924  0.13773979  0.32627663    -0.08500
C1292       C  0.14079103  0.12305075  0.32618007    -0.10000
C1293       C  0.25675015  0.12969119  0.38462528    -0.08500
C1294       C  0.24454092  0.11784241  0.37278245    -0.10000
C1295       C  0.36032268  0.17657437  0.37964049    -0.08500
C1296       C  0.37501284  0.17651260  0.36495003    -0.10000
C1297       C  0.24796183  0.07791824  0.26709008    -0.08500
C1298       C  0.26261340  0.07780162  0.25238977    -0.10000
C1299       C  0.32858219  0.00766460  0.19247925    -0.08500
C1300       C  0.32850733  0.98693577  0.19240551    -0.10000
C1301       C  0.36842632  0.11770390  0.24904268    -0.08500
C1302       C  0.38022167  0.12951746  0.26134319    -0.10000
C1303       C  0.42022711  0.23543271  0.25815826    -0.08500
C1304       C  0.42016576  0.25013903  0.24352338    -0.10000
C1305       C  0.32152647  0.13769671  0.13082795    -0.08500
C1306       C  0.32156942  0.12298814  0.14549868    -0.10000
C1307       C  0.37998379  0.25372230  0.13802477    -0.08500
C1308       C  0.36814390  0.24151357  0.12617792    -0.10000
C1309       C  0.31303805  0.48721961  0.17722269    -0.08500
C1310       C  0.31311950  0.50795136  0.17721743    -0.10000
C1311       C  0.36036448  0.37207213  0.18465241    -0.08500
C1312       C  0.37505043  0.35738428  0.18473226    -0.10000
C1313       C  0.24792070  0.25981598  0.08594784    -0.08500
C1314       C  0.26264849  0.24519480  0.08609592    -0.10000
C1315       C  0.25665670  0.37690419  0.13774136    -0.08500
C1316       C  0.24432383  0.36512609  0.12594292    -0.10000
C1317       C  0.23878064  0.41704660  0.25797006    -0.08500
C1318       C  0.25349230  0.41718058  0.24334199    -0.10000
C1319       C  0.17274898  0.48706372  0.31750706    -0.08500
C1320       C  0.17271705  0.50779594  0.31743287    -0.10000
C1321       C  0.17992698  0.37214317  0.36518232    -0.08500
C1322       C  0.17985252  0.35743729  0.37985699    -0.10000
C1323       C  0.08098116  0.24498917  0.26774414    -0.08500
C1324       C  0.08109694  0.25966785  0.25306682    -0.10000
C1325       C  0.14047000  0.31843609  0.13050262    -0.08500
C1326       C  0.12579556  0.31832563  0.14520994    -0.10000
C1327       C  0.12115613  0.36511770  0.24913200    -0.08500
C1328       C  0.13300448  0.37695179  0.26135712    -0.10000
C1329       C  0.51111246  0.68493792  0.17719888    -0.08500
C1330       C  0.49037588  0.68496674  0.17710480    -0.10000
C1331       C  0.62132266  0.74124325  0.13778222    -0.08500
C1332       C  0.63315539  0.75350800  0.12598600    -0.10000
C1333       C  0.75309943  0.73494704  0.08583434    -0.08500
C1334       C  0.73845506  0.74964975  0.08593608    -0.10000
C1335       C  0.64064927  0.62261110  0.18430385    -0.08500
C1336       C  0.62599470  0.63732642  0.18431358    -0.10000
C1337       C  0.74439309  0.61776557  0.13778243    -0.08500
C1338       C  0.75668600  0.62955088  0.12595781    -0.10000
C1339       C  0.67980868  0.85740942  0.13058160    -0.08500
C1340       C  0.67975297  0.87210757  0.14525459    -0.10000
C1341       C  0.58096779  0.75902212  0.25797894    -0.08500
C1342       C  0.58103151  0.74434038  0.24332675    -0.10000
C1343       C  0.51083533  0.82510625  0.31733329    -0.08500
C1344       C  0.49009790  0.82512075  0.31739106    -0.10000
C1345       C  0.63302378  0.87656471  0.24895081    -0.08500
C1346       C  0.62122929  0.86472480  0.26122241    -0.10000
C1347       C  0.98993171  0.66926502  0.19248491    -0.08500
C1348       C  0.01066573  0.66922296  0.19249643    -0.10000
C1349       C  0.87500871  0.67626754  0.14537468    -0.08500
C1350       C  0.86034842  0.67618005  0.13064934    -0.10000
C1351       C  0.76236512  0.57774121  0.25786246    -0.08500
C1352       C  0.74766710  0.57762619  0.24321659    -0.10000
C1353       C  0.87992181  0.62983531  0.24922970    -0.08500
C1354       C  0.86805720  0.61797996  0.26140901    -0.10000
C1355       C  0.92020275  0.73535627  0.25274764    -0.08500
C1356       C  0.92030756  0.75002956  0.26743084    -0.10000
C1357       C  0.01118872  0.81012710  0.33302276    -0.08500
C1358       C  0.99045276  0.81011838  0.33320039    -0.10000
C1359       C  0.82142746  0.63750395  0.37979620    -0.08500
C1360       C  0.82134412  0.62282959  0.36509173    -0.10000
C1361       C  0.88021365  0.75340382  0.37293815    -0.08500
C1362       C  0.86839228  0.74110817  0.38472715    -0.10000
C1363       C  0.75302449  0.91670790  0.26733421    -0.08500
C1364       C  0.73838584  0.91682026  0.25262257    -0.10000
C1365       C  0.86037727  0.87170750  0.32631863    -0.08500
C1366       C  0.87512448  0.85707020  0.32636565    -0.10000
C1367       C  0.74795795  0.75907427  0.42491437    -0.08500
C1368       C  0.76266832  0.74443732  0.42498562    -0.10000
C1369       C  0.64061638  0.81778871  0.37957599    -0.08500
C1370       C  0.62590831  0.81783862  0.36490176    -0.10000
C1371       C  0.74436505  0.86460606  0.38470679    -0.08500
C1372       C  0.75659581  0.87646660  0.37290282    -0.10000
C1373       C  0.68786075  0.50755582  0.17728455    -0.08500
C1374       C  0.68786836  0.48682832  0.17732632    -0.10000
C1375       C  0.75654997  0.36492636  0.12599461    -0.08500
C1376       C  0.74432970  0.37678250  0.13781648    -0.10000
C1377       C  0.99034224  0.32546891  0.19277791    -0.08500
C1378       C  0.01107820  0.32544477  0.19271810    -0.10000
C1379       C  0.86036242  0.31800391  0.13088041    -0.08500
C1380       C  0.87508235  0.31800660  0.14554304    -0.10000
C1381       C  0.74782324  0.41699915  0.24338648    -0.08500
C1382       C  0.76250580  0.41702638  0.25804232    -0.10000
C1383       C  0.82824429  0.48708639  0.31758745    -0.08500
C1384       C  0.82818860  0.50782061  0.31759413    -0.10000
C1385       C  0.88002627  0.36509766  0.24897416    -0.08500
C1386       C  0.86819225  0.37688837  0.26126279    -0.10000
C1387       C  0.51080093  0.30996168  0.17741026    -0.08500
C1388       C  0.49006696  0.31001435  0.17747580    -0.10000
C1389       C  0.62611197  0.35702699  0.18473033    -0.08500
C1390       C  0.64081221  0.37169511  0.18473428    -0.10000
C1391       C  0.75278533  0.25953882  0.08591304    -0.08500
C1392       C  0.73812824  0.24485865  0.08580572    -0.10000
C1393       C  0.63278308  0.24129489  0.12588692    -0.08500
C1394       C  0.62100233  0.25360047  0.13770933    -0.10000
C1395       C  0.58094606  0.23537075  0.25795435    -0.08500
C1396       C  0.58081037  0.25007559  0.24331674    -0.10000
C1397       C  0.49033021  0.16966288  0.31768491    -0.08500
C1398       C  0.51106739  0.16968851  0.31775136    -0.10000
C1399       C  0.67257884  0.00775830  0.19262375    -0.08500
C1400       C  0.67251448  0.98702562  0.19264329    -0.10000
C1401       C  0.67984378  0.12286420  0.14545399    -0.08500
C1402       C  0.67973376  0.13756308  0.13077110    -0.10000
C1403       C  0.63285438  0.11782569  0.24899179    -0.08500
C1404       C  0.62102775  0.12969500  0.26120408    -0.10000
C1405       C  0.75322081  0.07769252  0.26757405    -0.08500
C1406       C  0.73855549  0.07775327  0.25287832    -0.10000
C1407       C  0.81302683  0.98665260  0.33335860    -0.08500
C1408       C  0.81302777  0.00738940  0.33342311    -0.10000
C1409       C  0.64045877  0.17624220  0.38010763    -0.08500
C1410       C  0.62580771  0.17630799  0.36537115    -0.10000
C1411       C  0.74419751  0.12942158  0.38490777    -0.08500
C1412       C  0.75656106  0.11765900  0.37312386    -0.10000
C1413       C  0.92021972  0.25932282  0.25257735    -0.08500
C1414       C  0.92009753  0.24464964  0.26725689    -0.10000
C1415       C  0.01077423  0.18467767  0.33323564    -0.08500
C1416       C  0.99003040  0.18462543  0.33314683    -0.10000
C1417       C  0.87500198  0.13736807  0.32634164    -0.08500
C1418       C  0.86034847  0.12264665  0.32640788    -0.10000
C1419       C  0.76248501  0.24964765  0.42464821    -0.08500
C1420       C  0.74781001  0.23496501  0.42477345    -0.10000
C1421       C  0.82112019  0.35721644  0.37970755    -0.08500
C1422       C  0.82118640  0.37193285  0.36504405    -0.10000
C1423       C  0.86806047  0.25351780  0.38458695    -0.08500
C1424       C  0.87989855  0.24124996  0.37279191    -0.10000
C1425       C  0.13293447  0.61804184  0.74885745    -0.08500
C1426       C  0.12110429  0.62983940  0.76112284    -0.10000
C1427       C  0.08109108  0.75001435  0.74267293    -0.08500
C1428       C  0.08119334  0.73530267  0.75731567    -0.10000
C1429       C  0.17264812  0.68521489  0.51507538    -0.08500
C1430       C  0.17269999  0.68519472  0.49433572    -0.10000
C1431       C  0.17962815  0.63759583  0.63030294    -0.08500
C1432       C  0.17965311  0.62295936  0.64504483    -0.10000
C1433       C  0.13274117  0.74129304  0.62541224    -0.08500
C1434       C  0.12096389  0.75364325  0.63719525    -0.10000
C1435       C  0.18803271  0.66940021  0.99495264    -0.08500
C1436       C  0.18801077  0.66950961  0.01568960    -0.10000
C1437       C  0.14088728  0.67653261  0.87948712    -0.08500
C1438       C  0.12620024  0.67655933  0.86478751    -0.10000
C1439       C  0.25302541  0.57794697  0.76725680    -0.08500
C1440       C  0.23836944  0.57799893  0.75256178    -0.10000
C1441       C  0.24431579  0.62962611  0.88478835    -0.08500
C1442       C  0.25664255  0.61786370  0.87297370    -0.10000
C1443       C  0.12580191  0.85750170  0.68418845    -0.08500
C1444       C  0.14047118  0.87220838  0.68426187    -0.10000
C1445       C  0.25300945  0.75940056  0.58568783    -0.08500
C1446       C  0.23836026  0.74470887  0.58555862    -0.10000
C1447       C  0.31297856  0.82534548  0.51562356    -0.08500
C1448       C  0.31303693  0.82546601  0.49488656    -0.10000
C1449       C  0.25639935  0.86500709  0.62561618    -0.08500
C1450       C  0.24419009  0.87686430  0.63744963    -0.10000
C1451       C  0.24830025  0.91669917  0.74281919    -0.08500
C1452       C  0.26300135  0.91677813  0.75746874    -0.10000
C1453       C  0.37505089  0.81848397  0.64513218    -0.08500
C1454       C  0.36033427  0.81843714  0.63046731    -0.10000
C1455       C  0.36840019  0.87691190  0.76120016    -0.08500
C1456       C  0.38017828  0.86511148  0.74887711    -0.10000
C1457       C  0.24776709  0.73541702  0.92487919    -0.08500
C1458       C  0.26242816  0.75010756  0.92478904    -0.10000
C1459       C  0.32825556  0.81035397  0.99460039    -0.08500
C1460       C  0.32826888  0.81033102  0.01534033    -0.10000
C1461       C  0.32150154  0.85725644  0.87941905    -0.08500
C1462       C  0.32158105  0.87198171  0.86476621    -0.10000
C1463       C  0.42005347  0.74504167  0.76692986    -0.08500
C1464       C  0.42020150  0.75966831  0.75221120    -0.10000
C1465       C  0.37499226  0.63768798  0.82558603    -0.08500
C1466       C  0.36029787  0.62300257  0.82565241    -0.10000
C1467       C  0.37980141  0.74127388  0.87272138    -0.08500
C1468       C  0.36798832  0.75348924  0.88459843    -0.10000
C1469       C  0.01109750  0.66949057  0.81784228    -0.08500
C1470       C  0.99035716  0.66946287  0.81783472    -0.10000
C1471       C  0.86819492  0.61813461  0.74912658    -0.08500
C1472       C  0.87999712  0.62993552  0.76142478    -0.10000
C1473       C  0.81317802  0.66953922  0.99478347    -0.08500
C1474       C  0.81313347  0.66941603  0.01552234    -0.10000
C1475       C  0.86040078  0.67667714  0.87966447    -0.08500
C1476       C  0.87510341  0.67661838  0.86498513    -0.10000
C1477       C  0.74818703  0.57782052  0.76741882    -0.08500
C1478       C  0.76284062  0.57776103  0.75272015    -0.10000
C1479       C  0.74439387  0.61817593  0.87293698    -0.08500
C1480       C  0.75662446  0.63001753  0.88476384    -0.10000
C1481       C  0.73850965  0.75033651  0.92509660    -0.08500
C1482       C  0.75317500  0.73564436  0.92498444    -0.10000
C1483       C  0.67274915  0.81008919  0.01592495    -0.08500
C1484       C  0.67264226  0.81010128  0.99518885    -0.10000
C1485       C  0.51079912  0.68535050  0.83286755    -0.08500
C1486       C  0.49005544  0.68535195  0.83277355    -0.10000
C1487       C  0.62611403  0.63781962  0.82606396    -0.08500
C1488       C  0.64081203  0.62312860  0.82602292    -0.10000
C1489       C  0.62099856  0.74154751  0.87307999    -0.08500
C1490       C  0.63276819  0.75385906  0.88490647    -0.10000
C1491       C  0.67961232  0.87190814  0.86507213    -0.08500
C1492       C  0.67959336  0.85725370  0.87979359    -0.10000
C1493       C  0.58108941  0.74512580  0.76746118    -0.08500
C1494       C  0.58110572  0.75977281  0.75275720    -0.10000
C1495       C  0.51104311  0.82552173  0.69249171    -0.08500
C1496       C  0.49030977  0.82553858  0.69248232    -0.10000
C1497       C  0.62106451  0.86513015  0.74902609    -0.08500
C1498       C  0.63289647  0.87692524  0.76129183    -0.10000
C1499       C  0.92001061  0.74998923  0.74304318    -0.08500
C1500       C  0.92005930  0.73530644  0.75771100    -0.10000
C1501       C  0.99007066  0.81013596  0.67725197    -0.08500
C1502       C  0.01080448  0.81012563  0.67716269    -0.10000
C1503       C  0.82835101  0.68504826  0.51580463    -0.08500
C1504       C  0.82843417  0.68503552  0.49506755    -0.10000
C1505       C  0.82131554  0.63768979  0.63074860    -0.08500
C1506       C  0.82136215  0.62300643  0.64544767    -0.10000
C1507       C  0.86804134  0.74163201  0.62578210    -0.08500
C1508       C  0.87988789  0.75387872  0.63758546    -0.10000
C1509       C  0.75286715  0.91666601  0.74269898    -0.08500
C1510       C  0.73820345  0.91658621  0.75737815    -0.10000
C1511       C  0.86039718  0.87215598  0.68426719    -0.08500
C1512       C  0.87509157  0.85747479  0.68436254    -0.10000
C1513       C  0.74781281  0.75964689  0.58565543    -0.08500
C1514       C  0.76250886  0.74500076  0.58577592    -0.10000
C1515       C  0.68787446  0.82513569  0.49461651    -0.08500
C1516       C  0.68792235  0.82525443  0.51535100    -0.10000
C1517       C  0.62608073  0.81848294  0.64528820    -0.08500
C1518       C  0.64075523  0.81850431  0.63058495    -0.10000
C1519       C  0.74428793  0.86529987  0.62549043    -0.08500
C1520       C  0.75656996  0.87710694  0.63730481    -0.10000
C1521       C  0.32857110  0.98717588  0.81774533    -0.08500
C1522       C  0.32852739  0.00790991  0.81782121    -0.10000
C1523       C  0.36804340  0.11804011  0.76139880    -0.08500
C1524       C  0.37987211  0.12989525  0.74918972    -0.10000
C1525       C  0.32853023  0.18505563  0.01600243    -0.08500
C1526       C  0.32858568  0.18501135  0.99526313    -0.10000
C1527       C  0.32142702  0.13770268  0.87978273    -0.08500
C1528       C  0.32138160  0.12305373  0.86504946    -0.10000
C1529       C  0.42015547  0.23533278  0.75302847    -0.08500
C1530       C  0.42025167  0.25002354  0.76769622    -0.10000
C1531       C  0.36831740  0.24123919  0.88501644    -0.08500
C1532       C  0.38007907  0.25359910  0.87323676    -0.10000
C1533       C  0.17239897  0.48729611  0.69267266    -0.08500
C1534       C  0.17242009  0.50802590  0.69259621    -0.10000
C1535       C  0.13269230  0.37728970  0.74921010    -0.08500
C1536       C  0.12089717  0.36551915  0.76154117    -0.10000
C1537       C  0.24805298  0.25949992  0.92485407    -0.08500
C1538       C  0.26272167  0.24480430  0.92494860    -0.10000
C1539       C  0.18774233  0.32554459  0.01556863    -0.08500
C1540       C  0.18772507  0.32548490  0.99483143    -0.10000
C1541       C  0.12609969  0.31864670  0.86500950    -0.08500
C1542       C  0.14079426  0.31856662  0.87969679    -0.10000
C1543       C  0.23812593  0.41688545  0.75273747    -0.08500
C1544       C  0.25275987  0.41671479  0.76745164    -0.10000
C1545       C  0.31270308  0.50776388  0.83290691    -0.08500
C1546       C  0.31273812  0.48702880  0.83290552    -0.10000
C1547       C  0.36043403  0.37207012  0.82610106    -0.08500
C1548       C  0.37510912  0.35735664  0.82616877    -0.10000
C1549       C  0.25668520  0.37692376  0.87299601    -0.08500
C1550       C  0.24448413  0.36510193  0.88486758    -0.10000
C1551       C  0.17256709  0.31006765  0.49510828    -0.08500
C1552       C  0.17261036  0.31004390  0.51584689    -0.10000
C1553       C  0.17958050  0.35737418  0.63082793    -0.08500
C1554       C  0.17954036  0.37208113  0.64549536    -0.10000
C1555       C  0.08140978  0.24537808  0.74308529    -0.08500
C1556       C  0.08130828  0.26004914  0.75775684    -0.10000
C1557       C  0.12105019  0.24141260  0.63775740    -0.08500
C1558       C  0.13286580  0.25365870  0.62593009    -0.10000
C1559       C  0.23839142  0.25002030  0.58598162    -0.08500
C1560       C  0.25307145  0.23535320  0.58588545    -0.10000
C1561       C  0.31276778  0.16951795  0.49476947    -0.08500
C1562       C  0.31271804  0.16947635  0.51550934    -0.10000
C1563       C  0.36021370  0.17653676  0.63083598    -0.08500
C1564       C  0.37490776  0.17658754  0.64553636    -0.10000
C1565       C  0.24785223  0.07772027  0.74309539    -0.08500
C1566       C  0.26255519  0.07781074  0.75774695    -0.10000
C1567       C  0.18797722  0.98701467  0.67728937    -0.08500
C1568       C  0.18800593  0.00774603  0.67724932    -0.10000
C1569       C  0.14066462  0.12297663  0.68470338    -0.08500
C1570       C  0.12597370  0.13766284  0.68473215    -0.10000
C1571       C  0.24409679  0.11806521  0.63751276    -0.08500
C1572       C  0.25641631  0.12986498  0.62573290    -0.10000
C1573       C  0.81343039  0.00780644  0.67755531    -0.08500
C1574       C  0.81336758  0.98707780  0.67746168    -0.10000
C1575       C  0.68828855  0.16926111  0.49533892    -0.08500
C1576       C  0.68834797  0.16932717  0.51607915    -0.10000
C1577       C  0.74486267  0.12982332  0.62614703    -0.08500
C1578       C  0.75709434  0.11796768  0.63795789    -0.10000
C1579       C  0.73830673  0.07772847  0.75790502    -0.08500
C1580       C  0.75299962  0.07780265  0.74325457    -0.10000
C1581       C  0.67271276  0.00751100  0.81805572    -0.08500
C1582       C  0.67275694  0.98678160  0.81806223    -0.10000
C1583       C  0.51082003  0.16905355  0.69312631    -0.08500
C1584       C  0.49008096  0.16910105  0.69307622    -0.10000
C1585       C  0.62618879  0.17644250  0.64571873    -0.08500
C1586       C  0.64092593  0.17649534  0.63107191    -0.10000
C1587       C  0.63273097  0.11764024  0.76170146    -0.08500
C1588       C  0.62094827  0.12946315  0.74940409    -0.10000
C1589       C  0.01110183  0.18481053  0.67757735    -0.08500
C1590       C  0.99036616  0.18480538  0.67752282    -0.10000
C1591       C  0.86053895  0.12285007  0.68489032    -0.08500
C1592       C  0.87519683  0.13756385  0.68482748    -0.10000
C1593       C  0.74826393  0.23532435  0.58601635    -0.08500
C1594       C  0.76290808  0.25002579  0.58590472    -0.10000
C1595       C  0.82856368  0.30952798  0.51553375    -0.08500
C1596       C  0.82845531  0.30954193  0.49478920    -0.10000
C1597       C  0.86840778  0.25343158  0.62580029    -0.08500
C1598       C  0.88016644  0.24105492  0.63756431    -0.10000
C1599       C  0.67293616  0.18455931  0.99488586    -0.08500
C1600       C  0.67282061  0.18460493  0.01562356    -0.10000
C1601       C  0.67964031  0.12293000  0.86497474    -0.08500
C1602       C  0.67971203  0.13762033  0.87966094    -0.10000
C1603       C  0.58121065  0.24964902  0.76755316    -0.08500
C1604       C  0.58110867  0.23497135  0.75288303    -0.10000
C1605       C  0.51113579  0.30957422  0.83337284    -0.08500
C1606       C  0.49039545  0.30958528  0.83343267    -0.10000
C1607       C  0.63316786  0.24119102  0.88485440    -0.08500
C1608       C  0.62134782  0.25341072  0.87299482    -0.10000
C1609       C  0.75328459  0.25958157  0.92501174    -0.08500
C1610       C  0.73861196  0.24490526  0.92491690    -0.10000
C1611       C  0.81342311  0.32523086  0.99532676    -0.08500
C1612       C  0.81338762  0.32519514  0.01606201    -0.10000
C1613       C  0.68853339  0.48713974  0.83354679    -0.08500
C1614       C  0.68847405  0.50787854  0.83349017    -0.10000
C1615       C  0.64081618  0.37189237  0.82636068    -0.08500
C1616       C  0.62613486  0.35719112  0.82629306    -0.10000
C1617       C  0.74456965  0.37686001  0.87339955    -0.08500
C1618       C  0.75688296  0.36507503  0.88521113    -0.10000
C1619       C  0.92003185  0.25979749  0.75755185    -0.08500
C1620       C  0.92012130  0.24511459  0.74288963    -0.10000
C1621       C  0.99005126  0.32524710  0.81814747    -0.08500
C1622       C  0.01078537  0.32532398  0.81808241    -0.10000
C1623       C  0.87503368  0.31840978  0.86516636    -0.08500
C1624       C  0.86040516  0.31841927  0.87991750    -0.10000
C1625       C  0.76279386  0.41668055  0.75305657    -0.08500
C1626       C  0.74812841  0.41672392  0.76774838    -0.10000
C1627       C  0.82875426  0.48702584  0.69301720    -0.08500
C1628       C  0.82881467  0.50776050  0.69301763    -0.10000
C1629       C  0.82155321  0.37198618  0.64548111    -0.08500
C1630       C  0.82160456  0.35726528  0.63081728    -0.10000
C1631       C  0.86834777  0.37699545  0.74922357    -0.08500
C1632       C  0.88017499  0.36517778  0.76147608    -0.10000
loop_ 
_geom_bond_atom_site_label_1 
_geom_bond_atom_site_label_2 
_geom_bond_distance 
_geom_bond_site_symmetry_2 
_ccdc_geom_bond_type 
O1            C4   1.263       .  A
O1           Cd6   2.475       .  S
C2           O11   1.263       .  A
C2            O7   1.265       .  A
C2         C1625   1.438       .  S
O3            C9   1.264       .  A
O3           Cd6   2.477       .  S
C4           O12   1.263       .  A
C4         C1629   1.440       .  S
C5           O10   1.263       .  A
C5            O8   1.263       .  A
C5         C1627   1.436       .  S
Cd6          O13   2.452       .  S
Cd6          O12   2.487       .  S
Cd6          O11   2.461       .  S
Cd6           O7   2.485       .  S
Cd6          O10   2.470       .  S
Cd6           O8   2.472       .  S
C9           O13   1.263       .  A
C9         C1631   1.434       .  S
O14          C17   1.263       .  A
O14         Cd19   2.473       .  S
C15          O24   1.263       .  A
C15          O20   1.265       .  A
C15        C1619   1.437       .  S
O16          C22   1.265       .  A
O16         Cd19   2.477       .  S
C17          O25   1.264       .  A
C17        C1623   1.439       .  S
C18          O23   1.263       .  A
C18          O21   1.263       .  A
C18        C1621   1.435       .  S
Cd19         O26   2.451       .  S
Cd19         O25   2.485       .  S
Cd19         O24   2.459       .  S
Cd19         O20   2.483       .  S
Cd19         O23   2.468       .  S
Cd19         O21   2.471       .  S
C22          O26   1.263       .  A
C22        C1632   1.434       .  S
O27          C30   1.263       .  A
O27         Cd32   2.472       .  S
C28          O37   1.263       .  A
C28          O33   1.265       .  A
C28        C1626   1.438       .  S
O29          C35   1.263       .  A
O29         Cd32   2.472       .  S
C30          O38   1.264       .  A
C30        C1615   1.440       .  S
C31          O36   1.265       .  A
C31          O34   1.263       .  A
C31        C1617   1.435       .  S
Cd32         O39   2.472       .  S
Cd32         O38   2.490       .  S
Cd32         O37   2.459       .  S
Cd32         O33   2.485       .  S
Cd32         O36   2.480       .  S
Cd32         O34   2.453       .  S
C35          O39   1.263       .  A
C35        C1613   1.436       .  S
O40          C43   1.265       .  A
O40         Cd45   2.484       .  S
C41          O50   1.264       .  A
C41          O46   1.263       .  A
C41        C1624   1.439       .  S
O42          C48   1.265       .  A
O42         Cd45   2.479       .  S
C43          O51   1.263       .  A
C43        C1609   1.437       .  S
C44          O49   1.263       .  A
C44          O47   1.263       .  A
C44        C1611   1.435       .  S
Cd45         O52   2.452       .  S
Cd45         O51   2.459       .  S
Cd45         O50   2.487       .  S
Cd45         O46   2.471       .  S
Cd45         O49   2.470       .  S
Cd45         O47   2.471       .  S
C48          O52   1.263       .  A
C48        C1618   1.435       .  S
O53          C56   1.263       .  A
O53         Cd58   2.475       .  S
C54          O63   1.263       .  A
C54          O59   1.265       .  A
C54        C1603   1.437       .  S
O55          C61   1.264       .  A
O55         Cd58   2.477       .  S
C56          O64   1.263       .  A
C56        C1616   1.440       .  S
C57          O62   1.263       .  A
C57          O60   1.263       .  A
C57        C1605   1.436       .  S
Cd58         O65   2.453       .  S
Cd58         O64   2.486       .  S
Cd58         O63   2.459       .  S
Cd58         O59   2.483       .  S
Cd58         O62   2.470       .  S
Cd58         O60   2.472       .  S
C61          O65   1.263       .  A
C61        C1608   1.435       .  S
O66          C69   1.263       .  A
O66         Cd71   2.473       .  S
C67          O76   1.263       .  A
C67          O72   1.265       .  A
C67        C1610   1.437       .  S
O68          C74   1.265       .  A
O68         Cd71   2.478       .  S
C69          O77   1.263       .  A
C69        C1602   1.439       .  S
C70          O75   1.263       .  A
C70          O73   1.263       .  A
C70        C1599   1.435       .  S
Cd71         O78   2.451       .  S
Cd71         O77   2.485       .  S
Cd71         O76   2.459       .  S
Cd71         O72   2.484       .  S
Cd71         O75   2.468       .  S
Cd71         O73   2.472       .  S
C74          O78   1.263       .  A
C74        C1607   1.434       .  S
O79          C82   1.265       .  A
O79         Cd84   2.484       .  S
C80          O89   1.264       .  A
C80          O85   1.263       .  A
C80        C1630   1.440       .  S
O81          C87   1.265       .  A
O81         Cd84   2.479       .  S
C82          O90   1.263       .  A
C82        C1594   1.437       .  S
C83          O88   1.263       .  A
C83          O86   1.263       .  A
C83        C1595   1.436       .  S
Cd84         O91   2.452       .  S
Cd84         O90   2.458       .  S
Cd84         O89   2.489       .  S
Cd84         O85   2.471       .  S
Cd84         O88   2.472       .  S
Cd84         O86   2.471       .  S
C87          O91   1.263       .  A
C87        C1597   1.435       .  S
O92          C95   1.265       .  A
O92         Cd97   2.483       .  S
C93         O102   1.264       .  A
C93          O98   1.263       .  A
C93        C1592   1.439       .  S
O94         C100   1.265       .  A
O94         Cd97   2.478       .  S
C95         O103   1.263       .  A
C95        C1620   1.437       .  S
C96         O101   1.263       .  A
C96          O99   1.263       .  A
C96        C1590   1.435       .  S
Cd97        O104   2.451       .  S
Cd97        O103   2.459       .  S
Cd97        O102   2.486       .  S
Cd97         O98   2.471       .  S
Cd97        O101   2.470       .  S
Cd97         O99   2.471       .  S
C100        O104   1.263       .  A
C100       C1598   1.435       .  S
O105        C108   1.265       .  A
O105       Cd110   2.483       .  S
C106        O115   1.264       .  A
C106        O111   1.263       .  A
C106       C1585   1.439       .  S
O107        C113   1.265       .  A
O107       Cd110   2.478       .  S
C108        O116   1.263       .  A
C108       C1604   1.437       .  S
C109        O114   1.263       .  A
C109        O112   1.263       .  A
C109       C1583   1.436       .  S
Cd110       O117   2.453       .  S
Cd110       O116   2.458       .  S
Cd110       O115   2.488       .  S
Cd110       O111   2.472       .  S
Cd110       O114   2.471       .  S
Cd110       O112   2.471       .  S
C113        O117   1.263       .  A
C113       C1588   1.435       .  S
O118        C121   1.265       .  A
O118       Cd123   2.483       .  S
C119        O128   1.264       .  A
C119        O124   1.263       .  A
C119       C1601   1.439       .  S
O120        C126   1.265       .  A
O120       Cd123   2.478       .  S
C121        O129   1.263       .  A
C121       C1579   1.437       .  S
C122        O127   1.263       .  A
C122        O125   1.263       .  A
C122       C1581   1.435       .  S
Cd123       O130   2.450       .  S
Cd123       O129   2.458       .  S
Cd123       O128   2.486       .  S
Cd123       O124   2.470       .  S
Cd123       O127   2.469       .  S
Cd123       O125   2.471       .  S
C126        O130   1.263       .  A
C126       C1587   1.435       .  S
O131        C134   1.263       .  A
O131       Cd136   2.474       .  S
C132        O141   1.263       .  A
C132        O137   1.265       .  A
C132       C1593   1.437       .  S
O133        C139   1.264       .  A
O133       Cd136   2.477       .  S
C134        O142   1.263       .  A
C134       C1586   1.439       .  S
C135        O140   1.263       .  A
C135        O138   1.263       .  A
C135       C1576   1.436       .  S
Cd136       O143   2.453       .  S
Cd136       O142   2.486       .  S
Cd136       O141   2.459       .  S
Cd136       O137   2.483       .  S
Cd136       O140   2.470       .  S
Cd136       O138   2.471       .  S
C139        O143   1.263       .  A
C139       C1577   1.434       .  S
O144        C147   1.263       .  A
O144       Cd149   2.472       .  S
C145        O154   1.263       .  A
C145        O150   1.265       .  A
C145       C1580   1.437       .  S
O146        C152   1.265       .  A
O146       Cd149   2.477       .  S
C147        O155   1.263       .  A
C147       C1591   1.439       .  S
C148        O153   1.263       .  A
C148        O151   1.263       .  A
C148       C1573   1.435       .  S
Cd149       O156   2.451       .  S
Cd149       O155   2.484       .  S
Cd149       O154   2.459       .  S
Cd149       O150   2.483       .  S
Cd149       O153   2.469       .  S
Cd149       O151   2.471       .  S
C152        O156   1.263       .  A
C152       C1578   1.434       .  S
O157        C160   1.265       .  A
O157       Cd162   2.484       .  S
C158        O167   1.264       .  A
C158        O163   1.263       .  A
C158       C1569   1.439       .  S
O159        C165   1.265       .  A
O159       Cd162   2.480       .  S
C160        O168   1.263       .  A
C160       C1565   1.437       .  S
C161        O166   1.263       .  A
C161        O164   1.263       .  A
C161       C1568   1.435       .  S
Cd162       O169   2.452       .  S
Cd162       O168   2.458       .  S
Cd162       O167   2.487       .  S
Cd162       O163   2.471       .  S
Cd162       O166   2.470       .  S
Cd162       O164   2.471       .  S
C165        O169   1.263       .  A
C165       C1571   1.435       .  S
O170        C173   1.263       .  A
O170       Cd175   2.472       .  S
C171        O180   1.263       .  A
C171        O176   1.265       .  A
C171       C1560   1.437       .  S
O172        C178   1.263       .  A
O172       Cd175   2.471       .  S
C173        O181   1.264       .  A
C173       C1563   1.440       .  S
C174        O179   1.265       .  A
C174        O177   1.263       .  A
C174       C1572   1.435       .  S
Cd175       O182   2.471       .  S
Cd175       O181   2.489       .  S
Cd175       O180   2.458       .  S
Cd175       O176   2.484       .  S
Cd175       O179   2.479       .  S
Cd175       O177   2.453       .  S
C178        O182   1.263       .  A
C178       C1562   1.436       .  S
O183        C186   1.263       .  A
O183       Cd188   2.473       .  S
C184        O193   1.263       .  A
C184        O189   1.265       .  A
C184       C1555   1.437       .  S
O185        C191   1.265       .  A
O185       Cd188   2.477       .  S
C186        O194   1.263       .  A
C186       C1570   1.439       .  S
C187        O192   1.263       .  A
C187        O190   1.263       .  A
C187       C1589   1.435       .  S
Cd188       O195   2.451       .  S
Cd188       O194   2.484       .  S
Cd188       O193   2.459       .  S
Cd188       O189   2.482       .  S
Cd188       O192   2.470       .  S
Cd188       O190   2.471       .  S
C191        O195   1.263       .  A
C191       C1557   1.434       .  S
O196        C199   1.265       .  A
O196       Cd201   2.483       .  S
C197        O206   1.263       .  A
C197        O202   1.263       .  A
C197       C1553   1.439       .  S
O198        C204   1.263       .  A
O198       Cd201   2.469       .  S
C199        O207   1.263       .  A
C199       C1559   1.437       .  S
C200        O205   1.265       .  A
C200        O203   1.263       .  A
C200       C1558   1.434       .  S
Cd201       O208   2.471       .  S
Cd201       O207   2.458       .  S
Cd201       O206   2.485       .  S
Cd201       O202   2.472       .  S
Cd201       O205   2.477       .  S
Cd201       O203   2.452       .  S
C204        O208   1.263       .  A
C204       C1552   1.435       .  S
O209        C212   1.263       .  A
O209       Cd214   2.475       .  S
C210        O219   1.263       .  A
C210        O215   1.265       .  A
C210       C1544   1.437       .  S
O211        C217   1.265       .  A
O211       Cd214   2.477       .  S
C212        O220   1.263       .  A
C212       C1547   1.440       .  S
C213        O218   1.263       .  A
C213        O216   1.263       .  A
C213       C1546   1.436       .  S
Cd214       O221   2.452       .  S
Cd214       O220   2.486       .  S
Cd214       O219   2.459       .  S
Cd214       O215   2.482       .  S
Cd214       O218   2.471       .  S
Cd214       O216   2.471       .  S
C217        O221   1.263       .  A
C217       C1549   1.435       .  S
O222        C225   1.263       .  A
O222       Cd227   2.473       .  S
C223        O232   1.263       .  A
C223        O228   1.265       .  A
C223       C1537   1.438       .  S
O224        C230   1.265       .  A
O224       Cd227   2.478       .  S
C225        O233   1.263       .  A
C225       C1542   1.439       .  S
C226        O231   1.263       .  A
C226        O229   1.263       .  A
C226       C1540   1.435       .  S
Cd227       O234   2.452       .  S
Cd227       O233   2.485       .  S
Cd227       O232   2.461       .  S
Cd227       O228   2.486       .  S
Cd227       O231   2.470       .  S
Cd227       O229   2.471       .  S
C230        O234   1.263       .  A
C230       C1550   1.435       .  S
O235        C238   1.263       .  A
O235       Cd240   2.470       .  S
C236        O245   1.263       .  A
C236        O241   1.265       .  A
C236       C1543   1.437       .  S
O237        C243   1.263       .  A
O237       Cd240   2.469       .  S
C238        O246   1.264       .  A
C238       C1554   1.439       .  S
C239        O244   1.265       .  A
C239        O242   1.263       .  A
C239       C1535   1.435       .  S
Cd240       O247   2.471       .  S
Cd240       O246   2.487       .  S
Cd240       O245   2.457       .  S
Cd240       O241   2.483       .  S
Cd240       O244   2.479       .  S
Cd240       O242   2.452       .  S
C243        O247   1.263       .  A
C243       C1533   1.435       .  S
O248        C251   1.263       .  A
O248       Cd253   2.470       .  S
C249        O258   1.263       .  A
C249        O254   1.265       .  A
C249       C1556   1.437       .  S
O250        C256   1.263       .  A
O250       Cd253   2.470       .  S
C251        O259   1.264       .  A
C251       C1541   1.439       .  S
C252        O257   1.265       .  A
C252        O255   1.263       .  A
C252       C1536   1.435       .  S
Cd253       O260   2.471       .  S
Cd253       O259   2.486       .  S
Cd253       O258   2.458       .  S
Cd253       O254   2.483       .  S
Cd253       O257   2.479       .  S
Cd253       O255   2.451       .  S
C256        O260   1.263       .  A
C256       C1622   1.435       .  S
O261        C264   1.265       .  A
O261       Cd266   2.485       .  S
C262        O271   1.264       .  A
C262        O267   1.263       .  A
C262       C1548   1.440       .  S
O263        C269   1.265       .  A
O263       Cd266   2.480       .  S
C264        O272   1.263       .  A
C264       C1530   1.438       .  S
C265        O270   1.263       .  A
C265        O268   1.263       .  A
C265       C1606   1.436       .  S
Cd266       O273   2.453       .  S
Cd266       O272   2.459       .  S
Cd266       O271   2.490       .  S
Cd266       O267   2.472       .  S
Cd266       O270   2.471       .  S
Cd266       O268   2.472       .  S
C269        O273   1.263       .  A
C269       C1532   1.435       .  S
O274        C277   1.265       .  A
O274       Cd279   2.486       .  S
C275        O284   1.264       .  A
C275        O280   1.263       .  A
C275       C1527   1.439       .  S
O276        C282   1.265       .  A
O276       Cd279   2.480       .  S
C277        O285   1.263       .  A
C277       C1538   1.438       .  S
C278        O283   1.263       .  A
C278        O281   1.263       .  A
C278       C1526   1.436       .  S
Cd279       O286   2.452       .  S
Cd279       O285   2.460       .  S
Cd279       O284   2.488       .  S
Cd279       O280   2.471       .  S
Cd279       O283   2.471       .  S
Cd279       O281   2.472       .  S
C282        O286   1.263       .  A
C282       C1531   1.435       .  S
O287        C290   1.263       .  A
O287       Cd292   2.475       .  S
C288        O297   1.263       .  A
C288        O293   1.265       .  A
C288       C1529   1.438       .  S
O289        C295   1.265       .  A
O289       Cd292   2.476       .  S
C290        O298   1.263       .  A
C290       C1564   1.440       .  S
C291        O296   1.263       .  A
C291        O294   1.263       .  A
C291       C1584   1.436       .  S
Cd292       O299   2.452       .  S
Cd292       O298   2.487       .  S
Cd292       O297   2.461       .  S
Cd292       O293   2.486       .  S
Cd292       O296   2.471       .  S
Cd292       O294   2.471       .  S
C295        O299   1.263       .  A
C295       C1524   1.434       .  S
O300        C303   1.263       .  A
O300       Cd305   2.474       .  S
C301        O310   1.263       .  A
C301        O306   1.265       .  A
C301       C1566   1.437       .  S
O302        C308   1.265       .  A
O302       Cd305   2.477       .  S
C303        O311   1.263       .  A
C303       C1528   1.439       .  S
C304        O309   1.263       .  A
C304        O307   1.263       .  A
C304       C1522   1.436       .  S
Cd305       O312   2.451       .  S
Cd305       O311   2.486       .  S
Cd305       O310   2.460       .  S
Cd305       O306   2.484       .  S
Cd305       O309   2.470       .  S
Cd305       O307   2.472       .  S
C308        O312   1.263       .  A
C308       C1523   1.434       .  S
O313        C316   1.263       .  A
O313       Cd318   2.470       .  S
C314        O323   1.263       .  A
C314        O319   1.265       .  A
C314       C1513   1.437       .  S
O315        C321   1.263       .  A
O315       Cd318   2.470       .  S
C316        O324   1.264       .  A
C316       C1518   1.439       .  S
C317        O322   1.265       .  A
C317        O320   1.263       .  A
C317       C1519   1.435       .  S
Cd318       O325   2.470       .  S
Cd318       O324   2.487       .  S
Cd318       O323   2.457       .  S
Cd318       O319   2.483       .  S
Cd318       O322   2.479       .  S
Cd318       O320   2.452       .  S
C321        O325   1.263       .  A
C321       C1516   1.435       .  S
O326        C329   1.265       .  A
O326       Cd331   2.482       .  S
C327        O336   1.264       .  A
C327        O332   1.263       .  A
C327       C1511   1.439       .  S
O328        C334   1.265       .  A
O328       Cd331   2.479       .  S
C329        O337   1.263       .  A
C329       C1509   1.437       .  S
C330        O335   1.263       .  A
C330        O333   1.263       .  A
C330       C1574   1.435       .  S
Cd331       O338   2.452       .  S
Cd331       O337   2.459       .  S
Cd331       O336   2.486       .  S
Cd331       O332   2.470       .  S
Cd331       O335   2.469       .  S
Cd331       O333   2.470       .  S
C334        O338   1.263       .  A
C334       C1520   1.435       .  S
O339        C342   1.263       .  A
O339       Cd344   2.473       .  S
C340        O349   1.263       .  A
C340        O345   1.265       .  A
C340       C1514   1.437       .  S
O341        C347   1.264       .  A
O341       Cd344   2.478       .  S
C342        O350   1.263       .  A
C342       C1505   1.439       .  S
C343        O348   1.263       .  A
C343        O346   1.263       .  A
C343       C1503   1.435       .  S
Cd344       O351   2.453       .  S
Cd344       O350   2.486       .  S
Cd344       O349   2.458       .  S
Cd344       O345   2.482       .  S
Cd344       O348   2.469       .  S
Cd344       O346   2.470       .  S
C347        O351   1.263       .  A
C347       C1507   1.435       .  S
O352        C355   1.263       .  A
O352       Cd357   2.473       .  S
C353        O362   1.263       .  A
C353        O358   1.265       .  A
C353       C1499   1.437       .  S
O354        C360   1.265       .  A
O354       Cd357   2.478       .  S
C355        O363   1.263       .  A
C355       C1512   1.439       .  S
C356        O361   1.263       .  A
C356        O359   1.263       .  A
C356       C1501   1.435       .  S
Cd357       O364   2.452       .  S
Cd357       O363   2.484       .  S
Cd357       O362   2.459       .  S
Cd357       O358   2.483       .  S
Cd357       O361   2.469       .  S
Cd357       O359   2.471       .  S
C360        O364   1.263       .  A
C360       C1508   1.435       .  S
O365        C368   1.263       .  A
O365       Cd370   2.473       .  S
C366        O375   1.263       .  A
C366        O371   1.265       .  A
C366       C1494   1.437       .  S
O367        C373   1.265       .  A
O367       Cd370   2.477       .  S
C368        O376   1.263       .  A
C368       C1517   1.439       .  S
C369        O374   1.263       .  A
C369        O372   1.263       .  A
C369       C1495   1.435       .  S
Cd370       O377   2.451       .  S
Cd370       O376   2.485       .  S
Cd370       O375   2.459       .  S
Cd370       O371   2.484       .  S
Cd370       O374   2.469       .  S
Cd370       O372   2.470       .  S
C373        O377   1.263       .  A
C373       C1497   1.434       .  S
O378        C381   1.263       .  A
O378       Cd383   2.472       .  S
C379        O388   1.263       .  A
C379        O384   1.265       .  A
C379       C1510   1.437       .  S
O380        C386   1.265       .  A
O380       Cd383   2.476       .  S
C381        O389   1.264       .  A
C381       C1491   1.439       .  S
C382        O387   1.263       .  A
C382        O385   1.263       .  A
C382       C1582   1.435       .  S
Cd383       O390   2.451       .  S
Cd383       O389   2.484       .  S
Cd383       O388   2.459       .  S
Cd383       O384   2.483       .  S
Cd383       O387   2.469       .  S
Cd383       O385   2.470       .  S
C386        O390   1.263       .  A
C386       C1498   1.434       .  S
O391        C394   1.265       .  A
O391       Cd396   2.484       .  S
C392        O401   1.264       .  A
C392        O397   1.263       .  A
C392       C1487   1.440       .  S
O393        C399   1.265       .  A
O393       Cd396   2.480       .  S
C394        O402   1.263       .  A
C394       C1493   1.437       .  S
C395        O400   1.263       .  A
C395        O398   1.263       .  A
C395       C1485   1.436       .  S
Cd396       O403   2.454       .  S
Cd396       O402   2.459       .  S
Cd396       O401   2.489       .  S
Cd396       O397   2.472       .  S
Cd396       O400   2.471       .  S
Cd396       O398   2.472       .  S
C399        O403   1.263       .  A
C399       C1489   1.435       .  S
O404        C407   1.265       .  A
O404       Cd409   2.485       .  S
C405        O414   1.264       .  A
C405        O410   1.263       .  A
C405       C1492   1.439       .  S
O406        C412   1.265       .  A
O406       Cd409   2.480       .  S
C407        O415   1.263       .  A
C407       C1481   1.438       .  S
C408        O413   1.263       .  A
C408        O411   1.263       .  A
C408       C1484   1.435       .  S
Cd409       O416   2.452       .  S
Cd409       O415   2.459       .  S
Cd409       O414   2.487       .  S
Cd409       O410   2.470       .  S
Cd409       O413   2.470       .  S
Cd409       O411   2.471       .  S
C412        O416   1.263       .  A
C412       C1490   1.435       .  S
O417        C420   1.265       .  A
O417       Cd422   2.484       .  S
C418        O427   1.263       .  A
C418        O423   1.263       .  A
C418       C1488   1.440       .  S
O419        C425   1.263       .  A
O419       Cd422   2.471       .  S
C420        O428   1.263       .  A
C420       C1477   1.437       .  S
C421        O426   1.265       .  A
C421        O424   1.263       .  A
C421       C1479   1.435       .  S
Cd422       O429   2.473       .  S
Cd422       O428   2.460       .  S
Cd422       O427   2.487       .  S
Cd422       O423   2.475       .  S
Cd422       O426   2.478       .  S
Cd422       O424   2.453       .  S
C425        O429   1.263       .  A
C425       C1614   1.436       .  S
O430        C433   1.263       .  A
O430       Cd435   2.474       .  S
C431        O440   1.263       .  A
C431        O436   1.265       .  A
C431       C1482   1.438       .  S
O432        C438   1.265       .  A
O432       Cd435   2.478       .  S
C433        O441   1.263       .  A
C433       C1475   1.439       .  S
C434        O439   1.263       .  A
C434        O437   1.263       .  A
C434       C1473   1.436       .  S
Cd435       O442   2.453       .  S
Cd435       O441   2.486       .  S
Cd435       O440   2.460       .  S
Cd435       O436   2.485       .  S
Cd435       O439   2.470       .  S
Cd435       O437   2.472       .  S
C438        O442   1.263       .  A
C438       C1480   1.435       .  S
O443        C446   1.265       .  A
O443       Cd448   2.484       .  S
C444        O453   1.264       .  A
C444        O449   1.263       .  A
C444       C1506   1.439       .  S
O445        C451   1.265       .  A
O445       Cd448   2.478       .  S
C446        O454   1.263       .  A
C446       C1478   1.437       .  S
C447        O452   1.263       .  A
C447        O450   1.263       .  A
C447       C1628   1.436       .  S
Cd448       O455   2.452       .  S
Cd448       O454   2.458       .  S
Cd448       O453   2.488       .  S
Cd448       O449   2.472       .  S
Cd448       O452   2.471       .  S
Cd448       O450   2.471       .  S
C451        O455   1.263       .  A
C451       C1471   1.435       .  S
O456        C459   1.265       .  A
O456       Cd461   2.484       .  S
C457        O466   1.264       .  A
C457        O462   1.263       .  A
C457       C1476   1.439       .  S
O458        C464   1.265       .  A
O458       Cd461   2.478       .  S
C459        O467   1.263       .  A
C459       C1500   1.437       .  S
C460        O465   1.263       .  A
C460        O463   1.263       .  A
C460       C1470   1.436       .  S
Cd461       O468   2.452       .  S
Cd461       O467   2.459       .  S
Cd461       O466   2.487       .  S
Cd461       O462   2.471       .  S
Cd461       O465   2.472       .  S
Cd461       O463   2.472       .  S
C464        O468   1.263       .  A
C464       C1472   1.435       .  S
O469        C472   1.263       .  A
O469       Cd474   2.474       .  S
C470        O479   1.263       .  A
C470        O475   1.265       .  A
C470       C1463   1.437       .  S
O471        C477   1.264       .  A
O471       Cd474   2.479       .  S
C472        O480   1.263       .  A
C472       C1465   1.440       .  S
C473        O478   1.263       .  A
C473        O476   1.263       .  A
C473       C1486   1.436       .  S
Cd474       O481   2.454       .  S
Cd474       O480   2.486       .  S
Cd474       O479   2.459       .  S
Cd474       O475   2.483       .  S
Cd474       O478   2.470       .  S
Cd474       O476   2.473       .  S
C477        O481   1.263       .  A
C477       C1467   1.435       .  S
O482        C485   1.263       .  A
O482       Cd487   2.473       .  S
C483        O492   1.263       .  A
C483        O488   1.265       .  A
C483       C1458   1.438       .  S
O484        C490   1.265       .  A
O484       Cd487   2.479       .  S
C485        O493   1.263       .  A
C485       C1461   1.439       .  S
C486        O491   1.263       .  A
C486        O489   1.263       .  A
C486       C1459   1.436       .  S
Cd487       O494   2.453       .  S
Cd487       O493   2.485       .  S
Cd487       O492   2.460       .  S
Cd487       O488   2.485       .  S
Cd487       O491   2.470       .  S
Cd487       O489   2.472       .  S
C490        O494   1.263       .  A
C490       C1468   1.435       .  S
O495        C498   1.263       .  A
O495       Cd500   2.470       .  S
C496        O505   1.263       .  A
C496        O501   1.265       .  A
C496       C1464   1.437       .  S
O497        C503   1.263       .  A
O497       Cd500   2.469       .  S
C498        O506   1.264       .  A
C498       C1453   1.439       .  S
C499        O504   1.265       .  A
C499        O502   1.263       .  A
C499       C1456   1.435       .  S
Cd500       O507   2.470       .  S
Cd500       O506   2.487       .  S
Cd500       O505   2.457       .  S
Cd500       O501   2.483       .  S
Cd500       O504   2.478       .  S
Cd500       O502   2.452       .  S
C503        O507   1.263       .  A
C503       C1496   1.435       .  S
O508        C511   1.265       .  A
O508       Cd513   2.483       .  S
C509        O518   1.264       .  A
C509        O514   1.263       .  A
C509       C1462   1.439       .  S
O510        C516   1.265       .  A
O510       Cd513   2.479       .  S
C511        O519   1.263       .  A
C511       C1452   1.437       .  S
C512        O517   1.263       .  A
C512        O515   1.263       .  A
C512       C1521   1.436       .  S
Cd513       O520   2.452       .  S
Cd513       O519   2.459       .  S
Cd513       O518   2.486       .  S
Cd513       O514   2.470       .  S
Cd513       O517   2.471       .  S
Cd513       O515   2.472       .  S
C516        O520   1.263       .  A
C516       C1455   1.435       .  S
O521        C524   1.263       .  A
O521       Cd526   2.472       .  S
C522        O531   1.263       .  A
C522        O527   1.265       .  A
C522       C1445   1.437       .  S
O523        C529   1.264       .  A
O523       Cd526   2.478       .  S
C524        O532   1.263       .  A
C524       C1454   1.439       .  S
C525        O530   1.263       .  A
C525        O528   1.263       .  A
C525       C1447   1.435       .  S
Cd526       O533   2.453       .  S
Cd526       O532   2.486       .  S
Cd526       O531   2.458       .  S
Cd526       O527   2.483       .  S
Cd526       O530   2.469       .  S
Cd526       O528   2.471       .  S
C529        O533   1.263       .  A
C529       C1449   1.435       .  S
O534        C537   1.263       .  A
O534       Cd539   2.474       .  S
C535        O544   1.263       .  A
C535        O540   1.265       .  A
C535       C1451   1.437       .  S
O536        C542   1.265       .  A
O536       Cd539   2.478       .  S
C537        O545   1.263       .  A
C537       C1444   1.439       .  S
C538        O543   1.263       .  A
C538        O541   1.263       .  A
C538       C1567   1.435       .  S
Cd539       O546   2.452       .  S
Cd539       O545   2.485       .  S
Cd539       O544   2.459       .  S
Cd539       O540   2.483       .  S
Cd539       O543   2.470       .  S
Cd539       O541   2.470       .  S
C542        O546   1.263       .  A
C542       C1450   1.435       .  S
O547        C550   1.263       .  A
O547       Cd552   2.472       .  S
C548        O557   1.263       .  A
C548        O553   1.265       .  A
C548       C1439   1.437       .  S
O549        C555   1.263       .  A
O549       Cd552   2.470       .  S
C550        O558   1.264       .  A
C550       C1466   1.440       .  S
C551        O556   1.265       .  A
C551        O554   1.263       .  A
C551       C1442   1.435       .  S
Cd552       O559   2.472       .  S
Cd552       O558   2.489       .  S
Cd552       O557   2.458       .  S
Cd552       O553   2.483       .  S
Cd552       O556   2.480       .  S
Cd552       O554   2.453       .  S
C555        O559   1.263       .  A
C555       C1545   1.436       .  S
O560        C563   1.265       .  A
O560       Cd565   2.486       .  S
C561        O570   1.264       .  A
C561        O566   1.263       .  A
C561       C1437   1.439       .  S
O562        C568   1.265       .  A
O562       Cd565   2.479       .  S
C563        O571   1.263       .  A
C563       C1457   1.438       .  S
C564        O569   1.263       .  A
C564        O567   1.263       .  A
C564       C1435   1.435       .  S
Cd565       O572   2.452       .  S
Cd565       O571   2.460       .  S
Cd565       O570   2.488       .  S
Cd565       O566   2.471       .  S
Cd565       O569   2.471       .  S
Cd565       O567   2.471       .  S
C568        O572   1.263       .  A
C568       C1441   1.435       .  S
O573        C576   1.263       .  A
O573       Cd578   2.470       .  S
C574        O583   1.263       .  A
C574        O579   1.265       .  A
C574       C1446   1.437       .  S
O575        C581   1.263       .  A
O575       Cd578   2.471       .  S
C576        O584   1.264       .  A
C576       C1431   1.439       .  S
C577        O582   1.265       .  A
C577        O580   1.263       .  A
C577       C1433   1.436       .  S
Cd578       O585   2.471       .  S
Cd578       O584   2.488       .  S
Cd578       O583   2.457       .  S
Cd578       O579   2.483       .  S
Cd578       O582   2.481       .  S
Cd578       O580   2.454       .  S
C581        O585   1.263       .  A
C581       C1429   1.436       .  S
O586        C589   1.265       .  A
O586       Cd591   2.485       .  S
C587        O596   1.264       .  A
C587        O592   1.263       .  A
C587       C1443   1.439       .  S
O588        C594   1.265       .  A
O588       Cd591   2.481       .  S
C589        O597   1.263       .  A
C589       C1427   1.437       .  S
C590        O595   1.263       .  A
C590        O593   1.263       .  A
C590       C1502   1.435       .  S
Cd591       O598   2.454       .  S
Cd591       O597   2.459       .  S
Cd591       O596   2.487       .  S
Cd591       O592   2.471       .  S
Cd591       O595   2.470       .  S
Cd591       O593   2.470       .  S
C594        O598   1.263       .  A
C594       C1434   1.436       .  S
O599        C602   1.265       .  A
O599       Cd604   2.484       .  S
C600        O609   1.263       .  A
C600        O605   1.263       .  A
C600       C1432   1.439       .  S
O601        C607   1.263       .  A
O601       Cd604   2.469       .  S
C602        O610   1.263       .  A
C602       C1440   1.437       .  S
C603        O608   1.265       .  A
C603        O606   1.263       .  A
C603       C1425   1.434       .  S
Cd604       O611   2.471       .  S
Cd604       O610   2.458       .  S
Cd604       O609   2.486       .  S
Cd604       O605   2.473       .  S
Cd604       O608   2.476       .  S
Cd604       O606   2.452       .  S
C607        O611   1.263       .  A
C607       C1534   1.435       .  S
O612        C615   1.263       .  A
O612       Cd617   2.473       .  S
C613        O622   1.263       .  A
C613        O618   1.265       .  A
C613       C1428   1.438       .  S
O614        C620   1.265       .  A
O614       Cd617   2.477       .  S
C615        O623   1.264       .  A
C615       C1438   1.439       .  S
C616        O621   1.263       .  A
C616        O619   1.263       .  A
C616       C1469   1.436       .  S
Cd617       O624   2.451       .  S
Cd617       O623   2.486       .  S
Cd617       O622   2.461       .  S
Cd617       O618   2.485       .  S
Cd617       O621   2.471       .  S
Cd617       O619   2.472       .  S
C620        O624   1.263       .  A
C620       C1426   1.434       .  S
O625        C628   1.265       .  A
O625       Cd630   2.486       .  S
C626        O635   1.263       .  A
C626        O631   1.263       .  A
C626       C1421   1.439       .  S
O627        C633   1.263       .  A
O627       Cd630   2.471       .  S
C628        O636   1.263       .  A
C628       C1419   1.438       .  S
C629        O634   1.264       .  A
C629        O632   1.263       .  A
C629       C1423   1.435       .  S
Cd630       O637   2.473       .  S
Cd630       O636   2.460       .  S
Cd630       O635   2.487       .  S
Cd630       O631   2.474       .  S
Cd630       O634   2.478       .  S
Cd630       O632   2.453       .  S
C633        O637   1.263       .  A
C633       C1596   1.436       .  S
O638        C641   1.263       .  A
O638       Cd643   2.472       .  S
C639        O648   1.263       .  A
C639        O644   1.265       .  A
C639       C1414   1.437       .  S
O640        C646   1.265       .  A
O640       Cd643   2.479       .  S
C641        O649   1.264       .  A
C641       C1417   1.439       .  S
C642        O647   1.263       .  A
C642        O645   1.263       .  A
C642       C1416   1.436       .  S
Cd643       O650   2.453       .  S
Cd643       O649   2.486       .  S
Cd643       O648   2.459       .  S
Cd643       O644   2.485       .  S
Cd643       O647   2.470       .  S
Cd643       O645   2.473       .  S
C646        O650   1.263       .  A
C646       C1424   1.435       .  S
O651        C654   1.265       .  A
O651       Cd656   2.485       .  S
C652        O661   1.264       .  A
C652        O657   1.263       .  A
C652       C1409   1.439       .  S
O653        C659   1.265       .  A
O653       Cd656   2.481       .  S
C654        O662   1.263       .  A
C654       C1420   1.438       .  S
C655        O660   1.263       .  A
C655        O658   1.263       .  A
C655       C1575   1.436       .  S
Cd656       O663   2.453       .  S
Cd656       O662   2.460       .  S
Cd656       O661   2.489       .  S
Cd656       O657   2.471       .  S
Cd656       O660   2.471       .  S
Cd656       O658   2.472       .  S
C659        O663   1.263       .  A
C659       C1411   1.436       .  S
O664        C667   1.265       .  A
O664       Cd669   2.485       .  S
C665        O674   1.264       .  A
C665        O670   1.263       .  A
C665       C1418   1.439       .  S
O666        C672   1.265       .  A
O666       Cd669   2.480       .  S
C667        O675   1.263       .  A
C667       C1405   1.438       .  S
C668        O673   1.263       .  A
C668        O671   1.263       .  A
C668       C1408   1.436       .  S
Cd669       O676   2.454       .  S
Cd669       O675   2.459       .  S
Cd669       O674   2.488       .  S
Cd669       O670   2.471       .  S
Cd669       O673   2.472       .  S
Cd669       O671   2.472       .  S
C672        O676   1.263       .  A
C672       C1412   1.436       .  S
O677        C680   1.263       .  A
O677       Cd682   2.475       .  S
C678        O687   1.263       .  A
C678        O683   1.265       .  A
C678       C1406   1.438       .  S
O679        C685   1.265       .  A
O679       Cd682   2.480       .  S
C680        O688   1.263       .  A
C680       C1401   1.439       .  S
C681        O686   1.263       .  A
C681        O684   1.263       .  A
C681       C1399   1.435       .  S
Cd682       O689   2.453       .  S
Cd682       O688   2.486       .  S
Cd682       O687   2.461       .  S
Cd682       O683   2.485       .  S
Cd682       O686   2.470       .  S
Cd682       O684   2.472       .  S
C685        O689   1.263       .  A
C685       C1403   1.435       .  S
O690        C693   1.263       .  A
O690       Cd695   2.473       .  S
C691        O700   1.263       .  A
C691        O696   1.265       .  A
C691       C1395   1.437       .  S
O692        C698   1.264       .  A
O692       Cd695   2.479       .  S
C693        O701   1.263       .  A
C693       C1410   1.439       .  S
C694        O699   1.263       .  A
C694        O697   1.263       .  A
C694       C1398   1.435       .  S
Cd695       O702   2.455       .  S
Cd695       O701   2.486       .  S
Cd695       O700   2.459       .  S
Cd695       O696   2.483       .  S
Cd695       O699   2.469       .  S
Cd695       O697   2.471       .  S
C698        O702   1.263       .  A
C698       C1404   1.435       .  S
O703        C706   1.263       .  A
O703       Cd708   2.471       .  S
C704        O713   1.263       .  A
C704        O709   1.265       .  A
C704       C1392   1.437       .  S
O705        C711   1.263       .  A
O705       Cd708   2.470       .  S
C706        O714   1.264       .  A
C706       C1402   1.439       .  S
C707        O712   1.265       .  A
C707        O710   1.263       .  A
C707       C1393   1.435       .  S
Cd708       O715   2.471       .  S
Cd708       O714   2.487       .  S
Cd708       O713   2.458       .  S
Cd708       O709   2.482       .  S
Cd708       O712   2.480       .  S
Cd708       O710   2.453       .  S
C711        O715   1.263       .  A
C711       C1600   1.435       .  S
O716        C719   1.265       .  A
O716       Cd721   2.483       .  S
C717        O726   1.264       .  A
C717        O722   1.263       .  A
C717       C1389   1.439       .  S
O718        C724   1.265       .  A
O718       Cd721   2.479       .  S
C719        O727   1.263       .  A
C719       C1396   1.437       .  S
C720        O725   1.263       .  A
C720        O723   1.263       .  A
C720       C1387   1.435       .  S
Cd721       O728   2.453       .  S
Cd721       O727   2.457       .  S
Cd721       O726   2.486       .  S
Cd721       O722   2.470       .  S
Cd721       O725   2.469       .  S
Cd721       O723   2.471       .  S
C724        O728   1.263       .  A
C724       C1394   1.435       .  S
O729        C732   1.263       .  A
O729       Cd734   2.471       .  S
C730        O739   1.263       .  A
C730        O735   1.265       .  A
C730       C1382   1.436       .  S
O731        C737   1.263       .  A
O731       Cd734   2.470       .  S
C732        O740   1.264       .  A
C732       C1422   1.439       .  S
C733        O738   1.265       .  A
C733        O736   1.263       .  A
C733       C1386   1.436       .  S
Cd734       O741   2.471       .  S
Cd734       O740   2.487       .  S
Cd734       O739   2.457       .  S
Cd734       O735   2.481       .  S
Cd734       O738   2.480       .  S
Cd734       O736   2.455       .  S
C737        O741   1.263       .  A
C737       C1383   1.436       .  S
O742        C745   1.265       .  A
O742       Cd747   2.485       .  S
C743        O752   1.264       .  A
C743        O748   1.263       .  A
C743       C1380   1.439       .  S
O744        C750   1.265       .  A
O744       Cd747   2.481       .  S
C745        O753   1.263       .  A
C745       C1413   1.437       .  S
C746        O751   1.263       .  A
C746        O749   1.263       .  A
C746       C1377   1.435       .  S
Cd747       O754   2.453       .  S
Cd747       O753   2.460       .  S
Cd747       O752   2.487       .  S
Cd747       O748   2.471       .  S
Cd747       O751   2.470       .  S
Cd747       O749   2.472       .  S
C750        O754   1.263       .  A
C750       C1385   1.436       .  S
O755        C758   1.263       .  A
O755       Cd760   2.471       .  S
C756        O765   1.263       .  A
C756        O761   1.265       .  A
C756       C1381   1.436       .  S
O757        C763   1.265       .  A
O757       Cd760   2.477       .  S
C758        O766   1.263       .  A
C758       C1390   1.439       .  S
C759        O764   1.263       .  A
C759        O762   1.263       .  A
C759       C1374   1.435       .  S
Cd760       O767   2.452       .  S
Cd760       O766   2.484       .  S
Cd760       O765   2.457       .  S
Cd760       O761   2.482       .  S
Cd760       O764   2.468       .  S
Cd760       O762   2.470       .  S
C763        O767   1.263       .  A
C763       C1376   1.435       .  S
O768        C771   1.263       .  A
O768       Cd773   2.472       .  S
C769        O778   1.263       .  A
C769        O774   1.265       .  A
C769       C1391   1.437       .  S
O770        C776   1.265       .  A
O770       Cd773   2.477       .  S
C771        O779   1.264       .  A
C771       C1379   1.439       .  S
C772        O777   1.263       .  A
C772        O775   1.263       .  A
C772       C1612   1.435       .  S
Cd773       O780   2.452       .  S
Cd773       O779   2.485       .  S
Cd773       O778   2.459       .  S
Cd773       O774   2.482       .  S
Cd773       O777   2.469       .  S
Cd773       O775   2.470       .  S
C776        O780   1.263       .  A
C776       C1375   1.435       .  S
O781        C784   1.263       .  A
O781       Cd786   2.473       .  S
C782        O791   1.263       .  A
C782        O787   1.265       .  A
C782       C1367   1.437       .  S
O783        C789   1.264       .  A
O783       Cd786   2.477       .  S
C784        O792   1.263       .  A
C784       C1369   1.439       .  S
C785        O790   1.263       .  A
C785        O788   1.263       .  A
C785       C1515   1.435       .  S
Cd786       O793   2.453       .  S
Cd786       O792   2.486       .  S
Cd786       O791   2.458       .  S
Cd786       O787   2.484       .  S
Cd786       O790   2.468       .  S
Cd786       O788   2.471       .  S
C789        O793   1.263       .  A
C789       C1371   1.435       .  S
O794        C797   1.265       .  A
O794       Cd799   2.484       .  S
C795        O804   1.264       .  A
C795        O800   1.263       .  A
C795       C1365   1.439       .  S
O796        C802   1.263       .  A
O796       Cd799   2.470       .  S
C797        O805   1.263       .  A
C797       C1363   1.437       .  S
C798        O803   1.265       .  A
C798        O801   1.263       .  A
C798       C1372   1.435       .  S
Cd799       O806   2.472       .  S
Cd799       O805   2.459       .  S
Cd799       O804   2.486       .  S
Cd799       O800   2.473       .  S
Cd799       O803   2.478       .  S
Cd799       O801   2.453       .  S
C802        O806   1.263       .  A
C802       C1407   1.436       .  S
O807        C810   1.265       .  A
O807       Cd812   2.483       .  S
C808        O817   1.264       .  A
C808        O813   1.263       .  A
C808       C1359   1.439       .  S
O809        C815   1.265       .  A
O809       Cd812   2.480       .  S
C810        O818   1.263       .  A
C810       C1368   1.437       .  S
C811        O816   1.263       .  A
C811        O814   1.263       .  A
C811       C1504   1.435       .  S
Cd812       O819   2.454       .  S
Cd812       O818   2.458       .  S
Cd812       O817   2.488       .  S
Cd812       O813   2.470       .  S
Cd812       O816   2.470       .  S
Cd812       O814   2.471       .  S
C815        O819   1.263       .  A
C815       C1362   1.435       .  S
O820        C823   1.263       .  A
O820       Cd825   2.471       .  S
C821        O830   1.263       .  A
C821        O826   1.265       .  A
C821       C1356   1.438       .  S
O822        C828   1.263       .  A
O822       Cd825   2.471       .  S
C823        O831   1.264       .  A
C823       C1366   1.439       .  S
C824        O829   1.265       .  A
C824        O827   1.263       .  A
C824       C1361   1.435       .  S
Cd825       O832   2.471       .  S
Cd825       O831   2.488       .  S
Cd825       O830   2.460       .  S
Cd825       O826   2.485       .  S
Cd825       O829   2.480       .  S
Cd825       O827   2.453       .  S
C828        O832   1.263       .  A
C828       C1358   1.435       .  S
O833        C836   1.263       .  A
O833       Cd838   2.473       .  S
C834        O843   1.263       .  A
C834        O839   1.265       .  A
C834       C1351   1.437       .  S
O835        C841   1.265       .  A
O835       Cd838   2.478       .  S
C836        O844   1.263       .  A
C836       C1360   1.439       .  S
C837        O842   1.263       .  A
C837        O840   1.263       .  A
C837       C1384   1.436       .  S
Cd838       O845   2.453       .  S
Cd838       O844   2.486       .  S
Cd838       O843   2.458       .  S
Cd838       O839   2.482       .  S
Cd838       O842   2.469       .  S
Cd838       O840   2.471       .  S
C841        O845   1.263       .  A
C841       C1354   1.435       .  S
O846        C849   1.263       .  A
O846       Cd851   2.474       .  S
C847        O856   1.263       .  A
C847        O852   1.265       .  A
C847       C1355   1.438       .  S
O848        C854   1.265       .  A
O848       Cd851   2.478       .  S
C849        O857   1.263       .  A
C849       C1349   1.439       .  S
C850        O855   1.263       .  A
C850        O853   1.263       .  A
C850       C1347   1.435       .  S
Cd851       O858   2.453       .  S
Cd851       O857   2.486       .  S
Cd851       O856   2.461       .  S
Cd851       O852   2.485       .  S
Cd851       O855   2.469       .  S
Cd851       O853   2.470       .  S
C854        O858   1.263       .  A
C854       C1353   1.435       .  S
O859        C862   1.265       .  A
O859       Cd864   2.481       .  S
C860        O869   1.264       .  A
C860        O865   1.263       .  A
C860       C1370   1.439       .  S
O861        C867   1.265       .  A
O861       Cd864   2.479       .  S
C862        O870   1.263       .  A
C862       C1341   1.436       .  S
C863        O868   1.263       .  A
C863        O866   1.263       .  A
C863       C1343   1.436       .  S
Cd864       O871   2.454       .  S
Cd864       O870   2.457       .  S
Cd864       O869   2.487       .  S
Cd864       O865   2.470       .  S
Cd864       O868   2.470       .  S
Cd864       O866   2.471       .  S
C867        O871   1.263       .  A
C867       C1346   1.435       .  S
O872        C875   1.265       .  A
O872       Cd877   2.484       .  S
C873        O882   1.264       .  A
C873        O878   1.263       .  A
C873       C1340   1.439       .  S
O874        C880   1.265       .  A
O874       Cd877   2.479       .  S
C875        O883   1.263       .  A
C875       C1364   1.437       .  S
C876        O881   1.263       .  A
C876        O879   1.263       .  A
C876       C1400   1.435       .  S
Cd877       O884   2.453       .  S
Cd877       O883   2.458       .  S
Cd877       O882   2.486       .  S
Cd877       O878   2.470       .  S
Cd877       O881   2.471       .  S
Cd877       O879   2.470       .  S
C880        O884   1.263       .  A
C880       C1345   1.435       .  S
O885        C888   1.265       .  A
O885       Cd890   2.482       .  S
C886        O895   1.264       .  A
C886        O891   1.263       .  A
C886       C1335   1.438       .  S
O887        C893   1.265       .  A
O887       Cd890   2.478       .  S
C888        O896   1.263       .  A
C888       C1352   1.436       .  S
C889        O894   1.263       .  A
C889        O892   1.263       .  A
C889       C1373   1.435       .  S
Cd890       O897   2.453       .  S
Cd890       O896   2.457       .  S
Cd890       O895   2.485       .  S
Cd890       O891   2.469       .  S
Cd890       O894   2.468       .  S
Cd890       O892   2.470       .  S
C893        O897   1.263       .  A
C893       C1337   1.435       .  S
O898        C901   1.265       .  A
O898       Cd903   2.483       .  S
C899        O908   1.264       .  A
C899        O904   1.263       .  A
C899       C1350   1.439       .  S
O900        C906   1.265       .  A
O900       Cd903   2.479       .  S
C901        O909   1.263       .  A
C901       C1333   1.437       .  S
C902        O907   1.263       .  A
C902        O905   1.263       .  A
C902       C1474   1.436       .  S
Cd903       O910   2.453       .  S
Cd903       O909   2.459       .  S
Cd903       O908   2.487       .  S
Cd903       O904   2.470       .  S
Cd903       O907   2.471       .  S
Cd903       O905   2.471       .  S
C906        O910   1.263       .  A
C906       C1338   1.435       .  S
O911        C914   1.263       .  A
O911       Cd916   2.470       .  S
C912        O921   1.263       .  A
C912        O917   1.265       .  A
C912       C1342   1.436       .  S
O913        C919   1.264       .  A
O913       Cd916   2.478       .  S
C914        O922   1.264       .  A
C914       C1336   1.438       .  S
C915        O920   1.263       .  A
C915        O918   1.263       .  A
C915       C1329   1.435       .  S
Cd916       O923   2.453       .  S
Cd916       O922   2.485       .  S
Cd916       O921   2.456       .  S
Cd916       O917   2.482       .  S
Cd916       O920   2.468       .  S
Cd916       O918   2.471       .  S
C919        O923   1.263       .  A
C919       C1331   1.435       .  S
O924        C927   1.265       .  A
O924       Cd929   2.483       .  S
C925        O934   1.263       .  A
C925        O930   1.263       .  A
C925       C1339   1.439       .  S
O926        C932   1.263       .  A
O926       Cd929   2.469       .  S
C927        O935   1.263       .  A
C927       C1334   1.437       .  S
C928        O933   1.265       .  A
C928        O931   1.263       .  A
C928       C1332   1.435       .  S
Cd929       O936   2.470       .  S
Cd929       O935   2.459       .  S
Cd929       O934   2.484       .  S
Cd929       O930   2.472       .  S
Cd929       O933   2.477       .  S
Cd929       O931   2.453       .  S
C932        O936   1.263       .  A
C932       C1483   1.435       .  S
O937        C940   1.265       .  A
O937       Cd942   2.485       .  S
C938        O947   1.263       .  A
C938        O943   1.263       .  A
C938       C1326   1.439       .  S
O939        C945   1.263       .  A
O939       Cd942   2.470       .  S
C940        O948   1.263       .  A
C940       C1324   1.438       .  S
C941        O946   1.265       .  A
C941        O944   1.263       .  A
C941       C1327   1.435       .  S
Cd942       O949   2.470       .  S
Cd942       O948   2.461       .  S
Cd942       O947   2.485       .  S
Cd942       O943   2.475       .  S
Cd942       O946   2.479       .  S
Cd942       O944   2.453       .  S
C945        O949   1.263       .  A
C945       C1378   1.435       .  S
O950        C953   1.265       .  A
O950       Cd955   2.482       .  S
C951        O960   1.263       .  A
C951        O956   1.263       .  A
C951       C1321   1.439       .  S
O952        C958   1.263       .  A
O952       Cd955   2.470       .  S
C953        O961   1.263       .  A
C953       C1317   1.437       .  S
C954        O959   1.264       .  A
C954        O957   1.263       .  A
C954       C1328   1.435       .  S
Cd955       O962   2.471       .  S
Cd955       O961   2.459       .  S
Cd955       O960   2.486       .  S
Cd955       O956   2.473       .  S
Cd955       O959   2.479       .  S
Cd955       O957   2.454       .  S
C958        O962   1.263       .  A
C958       C1319   1.435       .  S
O963        C966   1.265       .  A
O963       Cd968   2.484       .  S
C964        O973   1.264       .  A
C964        O969   1.263       .  A
C964       C1325   1.439       .  S
O965        C971   1.265       .  A
O965       Cd968   2.480       .  S
C966        O974   1.263       .  A
C966       C1313   1.437       .  S
C967        O972   1.263       .  A
C967        O970   1.263       .  A
C967       C1539   1.435       .  S
Cd968       O975   2.454       .  S
Cd968       O974   2.459       .  S
Cd968       O973   2.487       .  S
Cd968       O969   2.470       .  S
Cd968       O972   2.470       .  S
Cd968       O970   2.471       .  S
C971        O975   1.263       .  A
C971       C1316   1.436       .  S
O976        C979   1.265       .  A
O976       Cd981   2.483       .  S
C977        O986   1.264       .  A
C977        O982   1.263       .  A
C977       C1311   1.439       .  S
O978        C984   1.265       .  A
O978       Cd981   2.480       .  S
C979        O987   1.263       .  A
C979       C1318   1.436       .  S
C980        O985   1.263       .  A
C980        O983   1.263       .  A
C980       C1309   1.435       .  S
Cd981       O988   2.454       .  S
Cd981       O987   2.456       .  S
Cd981       O986   2.487       .  S
Cd981       O982   2.469       .  S
Cd981       O985   2.470       .  S
Cd981       O983   2.471       .  S
C984        O988   1.263       .  A
C984       C1315   1.435       .  S
O989        C992   1.263       .  A
O989       Cd994   2.473       .  S
C990        O999   1.263       .  A
C990        O995   1.265       .  A
C990       C1314   1.437       .  S
O991        C997   1.265       .  A
O991       Cd994   2.477       .  S
C992       O1000   1.263       .  A
C992       C1305   1.439       .  S
C993        O998   1.263       .  A
C993        O996   1.263       .  A
C993       C1525   1.435       .  S
Cd994      O1001   2.453       .  S
Cd994      O1000   2.485       .  S
Cd994       O999   2.460       .  S
Cd994       O995   2.483       .  S
Cd994       O998   2.471       .  S
Cd994       O996   2.470       .  S
C997       O1001   1.263       .  A
C997       C1308   1.435       .  S
O1002      C1005   1.263       .  A
O1002     Cd1007   2.472       .  S
C1003      O1012   1.263       .  A
C1003      O1008   1.265       .  A
C1003      C1304   1.437       .  S
O1004      C1010   1.265       .  A
O1004     Cd1007   2.477       .  S
C1005      O1013   1.263       .  A
C1005      C1312   1.439       .  S
C1006      O1011   1.263       .  A
C1006      O1009   1.263       .  A
C1006      C1388   1.435       .  S
Cd1007     O1014   2.452       .  S
Cd1007     O1013   2.484       .  S
Cd1007     O1012   2.457       .  S
Cd1007     O1008   2.483       .  S
Cd1007     O1011   2.468       .  S
Cd1007     O1009   2.471       .  S
C1010      O1014   1.263       .  A
C1010      C1307   1.435       .  S
O1015      C1018   1.263       .  A
O1015     Cd1020   2.470       .  S
C1016      O1025   1.263       .  A
C1016      O1021   1.265       .  A
C1016      C1298   1.437       .  S
O1017      C1023   1.263       .  A
O1017     Cd1020   2.469       .  S
C1018      O1026   1.264       .  A
C1018      C1306   1.439       .  S
C1019      O1024   1.265       .  A
C1019      O1022   1.263       .  A
C1019      C1301   1.435       .  S
Cd1020     O1027   2.471       .  S
Cd1020     O1026   2.487       .  S
Cd1020     O1025   2.459       .  S
Cd1020     O1021   2.485       .  S
Cd1020     O1024   2.480       .  S
Cd1020     O1022   2.453       .  S
C1023      O1027   1.263       .  A
C1023      C1299   1.435       .  S
O1028      C1031   1.263       .  A
O1028     Cd1033   2.470       .  S
C1029      O1038   1.263       .  A
C1029      O1034   1.265       .  A
C1029      C1303   1.437       .  S
O1030      C1036   1.263       .  A
O1030     Cd1033   2.469       .  S
C1031      O1039   1.264       .  A
C1031      C1296   1.439       .  S
C1032      O1037   1.265       .  A
C1032      O1035   1.263       .  A
C1032      C1302   1.435       .  S
Cd1033     O1040   2.472       .  S
Cd1033     O1039   2.488       .  S
Cd1033     O1038   2.457       .  S
Cd1033     O1034   2.483       .  S
Cd1033     O1037   2.481       .  S
Cd1033     O1035   2.453       .  S
C1036      O1040   1.263       .  A
C1036      C1397   1.436       .  S
O1041      C1044   1.263       .  A
O1041     Cd1046   2.473       .  S
C1042      O1051   1.263       .  A
C1042      O1047   1.265       .  A
C1042      C1297   1.437       .  S
O1043      C1049   1.265       .  A
O1043     Cd1046   2.478       .  S
C1044      O1052   1.263       .  A
C1044      C1292   1.439       .  S
C1045      O1050   1.263       .  A
C1045      O1048   1.263       .  A
C1045      C1289   1.436       .  S
Cd1046     O1053   2.452       .  S
Cd1046     O1052   2.485       .  S
Cd1046     O1051   2.460       .  S
Cd1046     O1047   2.484       .  S
Cd1046     O1050   2.470       .  S
Cd1046     O1048   2.472       .  S
C1049      O1053   1.263       .  A
C1049      C1294   1.435       .  S
O1054      C1057   1.263       .  A
O1054     Cd1059   2.473       .  S
C1055      O1064   1.263       .  A
C1055      O1060   1.265       .  A
C1055      C1288   1.437       .  S
O1056      C1062   1.265       .  A
O1056     Cd1059   2.478       .  S
C1057      O1065   1.263       .  A
C1057      C1295   1.439       .  S
C1058      O1063   1.263       .  A
C1058      O1061   1.263       .  A
C1058      C1561   1.436       .  S
Cd1059     O1066   2.453       .  S
Cd1059     O1065   2.486       .  S
Cd1059     O1064   2.460       .  S
Cd1059     O1060   2.484       .  S
Cd1059     O1063   2.470       .  S
Cd1059     O1061   2.472       .  S
C1062      O1066   1.263       .  A
C1062      C1293   1.435       .  S
O1067      C1070   1.265       .  A
O1067     Cd1072   2.485       .  S
C1068      O1077   1.264       .  A
C1068      O1073   1.263       .  A
C1068      C1291   1.439       .  S
O1069      C1075   1.265       .  A
O1069     Cd1072   2.481       .  S
C1070      O1078   1.263       .  A
C1070      C1323   1.438       .  S
C1071      O1076   1.263       .  A
C1071      O1074   1.263       .  A
C1071      C1415   1.436       .  S
Cd1072     O1079   2.453       .  S
Cd1072     O1078   2.460       .  S
Cd1072     O1077   2.487       .  S
Cd1072     O1073   2.470       .  S
Cd1072     O1076   2.471       .  S
Cd1072     O1074   2.473       .  S
C1075      O1079   1.263       .  A
C1075      C1285   1.436       .  S
O1080      C1083   1.265       .  A
O1080     Cd1085   2.485       .  S
C1081      O1090   1.264       .  A
C1081      O1086   1.263       .  A
C1081      C1322   1.439       .  S
O1082      C1088   1.265       .  A
O1082     Cd1085   2.480       .  S
C1083      O1091   1.263       .  A
C1083      C1287   1.437       .  S
C1084      O1089   1.263       .  A
C1084      O1087   1.263       .  A
C1084      C1551   1.435       .  S
Cd1085     O1092   2.453       .  S
Cd1085     O1091   2.459       .  S
Cd1085     O1090   2.488       .  S
Cd1085     O1086   2.471       .  S
Cd1085     O1089   2.470       .  S
Cd1085     O1087   2.472       .  S
C1088      O1092   1.263       .  A
C1088      C1286   1.435       .  S
O1093      C1096   1.263       .  A
O1093     Cd1098   2.473       .  S
C1094      O1103   1.263       .  A
C1094      O1099   1.265       .  A
C1094      C1279   1.437       .  S
O1095      C1101   1.265       .  A
O1095     Cd1098   2.479       .  S
C1096      O1104   1.264       .  A
C1096      C1281   1.439       .  S
C1097      O1102   1.263       .  A
C1097      O1100   1.263       .  A
C1097      C1344   1.436       .  S
Cd1098     O1105   2.453       .  S
Cd1098     O1104   2.486       .  S
Cd1098     O1103   2.459       .  S
Cd1098     O1099   2.483       .  S
Cd1098     O1102   2.470       .  S
Cd1098     O1100   2.471       .  S
C1101      O1105   1.263       .  A
C1101      C1283   1.435       .  S
O1106      C1109   1.263       .  A
O1106     Cd1111   2.472       .  S
C1107      O1116   1.263       .  A
C1107      O1112   1.265       .  A
C1107      C1275   1.437       .  S
O1108      C1114   1.265       .  A
O1108     Cd1111   2.478       .  S
C1109      O1117   1.263       .  A
C1109      C1277   1.439       .  S
C1110      O1115   1.263       .  A
C1110      O1113   1.263       .  A
C1110      C1300   1.435       .  S
Cd1111     O1118   2.454       .  S
Cd1111     O1117   2.485       .  S
Cd1111     O1116   2.459       .  S
Cd1111     O1112   2.484       .  S
Cd1111     O1115   2.469       .  S
Cd1111     O1113   2.470       .  S
C1114      O1118   1.263       .  A
C1114      C1284   1.435       .  S
O1119      C1122   1.265       .  A
O1119     Cd1124   2.483       .  S
C1120      O1129   1.264       .  A
C1120      O1125   1.263       .  A
C1120      C1271   1.439       .  S
O1121      C1127   1.265       .  A
O1121     Cd1124   2.481       .  S
C1122      O1130   1.263       .  A
C1122      C1280   1.437       .  S
C1123      O1128   1.263       .  A
C1123      O1126   1.263       .  A
C1123      C1330   1.435       .  S
Cd1124     O1131   2.454       .  S
Cd1124     O1130   2.457       .  S
Cd1124     O1129   2.487       .  S
Cd1124     O1125   2.470       .  S
Cd1124     O1128   2.470       .  S
Cd1124     O1126   2.471       .  S
C1127      O1131   1.263       .  A
C1127      C1273   1.436       .  S
O1132      C1135   1.263       .  A
O1132     Cd1137   2.469       .  S
C1133      O1142   1.263       .  A
C1133      O1138   1.265       .  A
C1133      C1269   1.437       .  S
O1134      C1140   1.263       .  A
O1134     Cd1137   2.470       .  S
C1135      O1143   1.264       .  A
C1135      C1278   1.439       .  S
C1136      O1141   1.265       .  A
C1136      O1139   1.263       .  A
C1136      C1274   1.436       .  S
Cd1137     O1144   2.471       .  S
Cd1137     O1143   2.487       .  S
Cd1137     O1142   2.459       .  S
Cd1137     O1138   2.484       .  S
Cd1137     O1141   2.481       .  S
Cd1137     O1139   2.455       .  S
C1140      O1144   1.263       .  A
C1140      C1460   1.436       .  S
O1145      C1148   1.263       .  A
O1145     Cd1150   2.473       .  S
C1146      O1155   1.263       .  A
C1146      O1151   1.265       .  A
C1146      C1270   1.437       .  S
O1147      C1153   1.264       .  A
O1147     Cd1150   2.478       .  S
C1148      O1156   1.263       .  A
C1148      C1265   1.439       .  S
C1149      O1154   1.263       .  A
C1149      O1152   1.263       .  A
C1149      C1436   1.435       .  S
Cd1150     O1157   2.454       .  S
Cd1150     O1156   2.486       .  S
Cd1150     O1155   2.460       .  S
Cd1150     O1151   2.485       .  S
Cd1150     O1154   2.470       .  S
Cd1150     O1152   2.471       .  S
C1153      O1157   1.263       .  A
C1153      C1268   1.435       .  S
O1158      C1161   1.263       .  A
O1158     Cd1163   2.473       .  S
C1159      O1168   1.263       .  A
C1159      O1164   1.265       .  A
C1159      C1263   1.436       .  S
O1160      C1166   1.265       .  A
O1160     Cd1163   2.479       .  S
C1161      O1169   1.263       .  A
C1161      C1272   1.439       .  S
C1162      O1167   1.263       .  A
C1162      O1165   1.263       .  A
C1162      C1310   1.435       .  S
Cd1163     O1170   2.453       .  S
Cd1163     O1169   2.485       .  S
Cd1163     O1168   2.458       .  S
Cd1163     O1164   2.482       .  S
Cd1163     O1167   2.468       .  S
Cd1163     O1165   2.471       .  S
C1166      O1170   1.263       .  A
C1166      C1267   1.435       .  S
O1171      C1174   1.263       .  A
O1171     Cd1176   2.469       .  S
C1172      O1181   1.263       .  A
C1172      O1177   1.265       .  A
C1172      C1259   1.437       .  S
O1173      C1179   1.263       .  A
O1173     Cd1176   2.470       .  S
C1174      O1182   1.264       .  A
C1174      C1266   1.439       .  S
C1175      O1180   1.265       .  A
C1175      O1178   1.263       .  A
C1175      C1262   1.436       .  S
Cd1176     O1183   2.470       .  S
Cd1176     O1182   2.488       .  S
Cd1176     O1181   2.458       .  S
Cd1176     O1177   2.485       .  S
Cd1176     O1180   2.480       .  S
Cd1176     O1178   2.454       .  S
C1179      O1183   1.263       .  A
C1179      C1348   1.435       .  S
O1184      C1187   1.265       .  A
O1184     Cd1189   2.482       .  S
C1185      O1194   1.264       .  A
C1185      O1190   1.263       .  A
C1185      C1257   1.439       .  S
O1186      C1192   1.265       .  A
O1186     Cd1189   2.481       .  S
C1187      O1195   1.263       .  A
C1187      C1264   1.436       .  S
C1188      O1193   1.263       .  A
C1188      O1191   1.263       .  A
C1188      C1320   1.435       .  S
Cd1189     O1196   2.454       .  S
Cd1189     O1195   2.457       .  S
Cd1189     O1194   2.487       .  S
Cd1189     O1190   2.470       .  S
Cd1189     O1193   2.469       .  S
Cd1189     O1191   2.472       .  S
C1192      O1196   1.263       .  A
C1192      C1261   1.435       .  S
O1197      C1200   1.265       .  A
O1197     Cd1202   2.483       .  S
C1198      O1207   1.264       .  A
C1198      O1203   1.263       .  A
C1198      C1282   1.439       .  S
O1199      C1205   1.265       .  A
O1199     Cd1202   2.480       .  S
C1200      O1208   1.263       .  A
C1200      C1253   1.436       .  S
C1201      O1206   1.263       .  A
C1201      O1204   1.263       .  A
C1201      C1448   1.435       .  S
Cd1202     O1209   2.453       .  S
Cd1202     O1208   2.457       .  S
Cd1202     O1207   2.487       .  S
Cd1202     O1203   2.471       .  S
Cd1202     O1206   2.469       .  S
Cd1202     O1204   2.472       .  S
C1205      O1209   1.263       .  A
C1205      C1255   1.435       .  S
O1210      C1213   1.265       .  A
O1210     Cd1215   2.484       .  S
C1211      O1220   1.264       .  A
C1211      O1216   1.263       .  A
C1211      C1251   1.439       .  S
O1212      C1218   1.265       .  A
O1212     Cd1215   2.480       .  S
C1213      O1221   1.263       .  A
C1213      C1276   1.437       .  S
C1214      O1219   1.263       .  A
C1214      O1217   1.263       .  A
C1214      C1290   1.436       .  S
Cd1215     O1222   2.454       .  S
Cd1215     O1221   2.459       .  S
Cd1215     O1220   2.488       .  S
Cd1215     O1216   2.471       .  S
Cd1215     O1219   2.471       .  S
Cd1215     O1217   2.471       .  S
C1218      O1222   1.263       .  A
C1218      C1256   1.435       .  S
O1223      C1226   1.263       .  A
O1223     Cd1228   2.473       .  S
C1224      O1233   1.263       .  A
C1224      O1229   1.265       .  A
C1224      C1254   1.436       .  S
O1225      C1231   1.265       .  A
O1225     Cd1228   2.478       .  S
C1226      O1234   1.263       .  A
C1226      C1258   1.439       .  S
C1227      O1232   1.263       .  A
C1227      O1230   1.263       .  A
C1227      C1430   1.436       .  S
Cd1228     O1235   2.453       .  S
Cd1228     O1234   2.485       .  S
Cd1228     O1233   2.458       .  S
Cd1228     O1229   2.482       .  S
Cd1228     O1232   2.469       .  S
Cd1228     O1230   2.472       .  S
C1231      O1235   1.263       .  A
C1231      C1250   1.435       .  S
O1236      C1239   1.263       .  A
O1236     Cd1241   2.473       .  S
C1237      O1246   1.263       .  A
C1237      O1242   1.265       .  A
C1237      C1260   1.437       .  S
O1238      C1244   1.264       .  A
O1238     Cd1241   2.478       .  S
C1239      O1247   1.263       .  A
C1239      C1252   1.439       .  S
C1240      O1245   1.263       .  A
C1240      O1243   1.263       .  A
C1240      C1357   1.435       .  S
Cd1241     O1248   2.454       .  S
Cd1241     O1247   2.485       .  S
Cd1241     O1246   2.460       .  S
Cd1241     O1242   2.484       .  S
Cd1241     O1245   2.470       .  S
Cd1241     O1243   2.471       .  S
C1244      O1248   1.263       .  A
C1244      C1249   1.435       .  S
C1249      C1250   1.206       .  T
C1251      C1252   1.208       .  T
C1253      C1254   1.207       .  T
C1255      C1256   1.206       .  T
C1257      C1258   1.208       .  T
C1259      C1260   1.207       .  T
C1261      C1262   1.206       .  T
C1263      C1264   1.206       .  T
C1265      C1266   1.208       .  T
C1267      C1268   1.206       .  T
C1269      C1270   1.207       .  T
C1271      C1272   1.208       .  T
C1273      C1274   1.206       .  T
C1275      C1276   1.207       .  T
C1277      C1278   1.208       .  T
C1279      C1280   1.207       .  T
C1281      C1282   1.208       .  T
C1283      C1284   1.206       .  T
C1285      C1286   1.206       .  T
C1287      C1288   1.207       .  T
C1289      C1290   1.206   1_545  T
C1291      C1292   1.208       .  T
C1293      C1294   1.206       .  T
C1295      C1296   1.208       .  T
C1297      C1298   1.207       .  T
C1299      C1300   1.206   1_545  T
C1301      C1302   1.206       .  T
C1303      C1304   1.207       .  T
C1305      C1306   1.208       .  T
C1307      C1308   1.205       .  T
C1309      C1310   1.206       .  T
C1311      C1312   1.208       .  T
C1313      C1314   1.207       .  T
C1315      C1316   1.206       .  T
C1317      C1318   1.207       .  T
C1319      C1320   1.206       .  T
C1321      C1322   1.208       .  T
C1323      C1324   1.207       .  T
C1325      C1326   1.208       .  T
C1327      C1328   1.206       .  T
C1329      C1330   1.206       .  T
C1331      C1332   1.206       .  T
C1333      C1334   1.207       .  T
C1335      C1336   1.208       .  T
C1337      C1338   1.206       .  T
C1339      C1340   1.208       .  T
C1341      C1342   1.206       .  T
C1343      C1344   1.206       .  T
C1345      C1346   1.206       .  T
C1347      C1348   1.206   1_655  T
C1349      C1350   1.208       .  T
C1351      C1352   1.207       .  T
C1353      C1354   1.206       .  T
C1355      C1356   1.207       .  T
C1357      C1358   1.206   1_455  T
C1359      C1360   1.208       .  T
C1361      C1362   1.206       .  T
C1363      C1364   1.207       .  T
C1365      C1366   1.208       .  T
C1367      C1368   1.207       .  T
C1369      C1370   1.208       .  T
C1371      C1372   1.206       .  T
C1373      C1374   1.206       .  T
C1375      C1376   1.206       .  T
C1377      C1378   1.206   1_655  T
C1379      C1380   1.208       .  T
C1381      C1382   1.206       .  T
C1383      C1384   1.206       .  T
C1385      C1386   1.206       .  T
C1387      C1388   1.206       .  T
C1389      C1390   1.208       .  T
C1391      C1392   1.207       .  T
C1393      C1394   1.206       .  T
C1395      C1396   1.207       .  T
C1397      C1398   1.206       .  T
C1399      C1400   1.206   1_545  T
C1401      C1402   1.208       .  T
C1403      C1404   1.206       .  T
C1405      C1406   1.207       .  T
C1407      C1408   1.206   1_565  T
C1409      C1410   1.208       .  T
C1411      C1412   1.206       .  T
C1413      C1414   1.207       .  T
C1415      C1416   1.206   1_455  T
C1417      C1418   1.208       .  T
C1419      C1420   1.207       .  T
C1421      C1422   1.208       .  T
C1423      C1424   1.206       .  T
C1425      C1426   1.205       .  T
C1427      C1428   1.207       .  T
C1429      C1430   1.206       .  T
C1431      C1432   1.208       .  T
C1433      C1434   1.206       .  T
C1435      C1436   1.206   1_556  T
C1437      C1438   1.208       .  T
C1439      C1440   1.207       .  T
C1441      C1442   1.206       .  T
C1443      C1444   1.208       .  T
C1445      C1446   1.207       .  T
C1447      C1448   1.206       .  T
C1449      C1450   1.206       .  T
C1451      C1452   1.207       .  T
C1453      C1454   1.208       .  T
C1455      C1456   1.206       .  T
C1457      C1458   1.207       .  T
C1459      C1460   1.206   1_556  T
C1461      C1462   1.208       .  T
C1463      C1464   1.207       .  T
C1465      C1466   1.208       .  T
C1467      C1468   1.206       .  T
C1469      C1470   1.206   1_455  T
C1471      C1472   1.206       .  T
C1473      C1474   1.206   1_556  T
C1475      C1476   1.208       .  T
C1477      C1478   1.207       .  T
C1479      C1480   1.206       .  T
C1481      C1482   1.207       .  T
C1483      C1484   1.206   1_554  T
C1485      C1486   1.206       .  T
C1487      C1488   1.209       .  T
C1489      C1490   1.206       .  T
C1491      C1492   1.208       .  T
C1493      C1494   1.207       .  T
C1495      C1496   1.206       .  T
C1497      C1498   1.205       .  T
C1499      C1500   1.207       .  T
C1501      C1502   1.206   1_655  T
C1503      C1504   1.206       .  T
C1505      C1506   1.208       .  T
C1507      C1508   1.206       .  T
C1509      C1510   1.207       .  T
C1511      C1512   1.208       .  T
C1513      C1514   1.207       .  T
C1515      C1516   1.206       .  T
C1517      C1518   1.208       .  T
C1519      C1520   1.206       .  T
C1521      C1522   1.206   1_565  T
C1523      C1524   1.205       .  T
C1525      C1526   1.206   1_554  T
C1527      C1528   1.208       .  T
C1529      C1530   1.207       .  T
C1531      C1532   1.206       .  T
C1533      C1534   1.206       .  T
C1535      C1536   1.206       .  T
C1537      C1538   1.208       .  T
C1539      C1540   1.206   1_554  T
C1541      C1542   1.208       .  T
C1543      C1544   1.207       .  T
C1545      C1546   1.206       .  T
C1547      C1548   1.209       .  T
C1549      C1550   1.205       .  T
C1551      C1552   1.206       .  T
C1553      C1554   1.208       .  T
C1555      C1556   1.207       .  T
C1557      C1558   1.205       .  T
C1559      C1560   1.207       .  T
C1561      C1562   1.206       .  T
C1563      C1564   1.209       .  T
C1565      C1566   1.207       .  T
C1567      C1568   1.206   1_565  T
C1569      C1570   1.208       .  T
C1571      C1572   1.206       .  T
C1573      C1574   1.206   1_545  T
C1575      C1576   1.206       .  T
C1577      C1578   1.205       .  T
C1579      C1580   1.207       .  T
C1581      C1582   1.206   1_545  T
C1583      C1584   1.206       .  T
C1585      C1586   1.208       .  T
C1587      C1588   1.206       .  T
C1589      C1590   1.206   1_455  T
C1591      C1592   1.208       .  T
C1593      C1594   1.207       .  T
C1595      C1596   1.206       .  T
C1597      C1598   1.206       .  T
C1599      C1600   1.206   1_556  T
C1601      C1602   1.208       .  T
C1603      C1604   1.207       .  T
C1605      C1606   1.206       .  T
C1607      C1608   1.205       .  T
C1609      C1610   1.207       .  T
C1611      C1612   1.206   1_556  T
C1613      C1614   1.206       .  T
C1615      C1616   1.208       .  T
C1617      C1618   1.206       .  T
C1619      C1620   1.207       .  T
C1621      C1622   1.206   1_655  T
C1623      C1624   1.208       .  T
C1625      C1626   1.207       .  T
C1627      C1628   1.206       .  T
C1629      C1630   1.208       .  T
C1631      C1632   1.205       .  T
