geometry optimzed in LAMMPS
_audit_creation_date              2020-11-30 
_audit_creation_method            'lammps2cif' 
_symmetry_space_group_name_H-M    'P1' 
_symmetry_Int_Tables_number       1 
_symmetry_cell_setting            triclinic 
loop_ 
_symmetry_equiv_pos_as_xyz 
  x,y,z 
_cell_length_a                    25.37699597 
_cell_length_b                    25.391348885706027 
_cell_length_c                    25.38576982969804 
_cell_angle_alpha                 89.41485107699424 
_cell_angle_beta                  91.10012171087564 
_cell_angle_gamma                 90.00674043734764 
loop_ 
_atom_site_label 
_atom_site_type_symbol 
_atom_site_fract_x 
_atom_site_fract_y 
_atom_site_fract_z 
_atom_site_charge 
C1          C  0.11646281  0.72028192  0.95553041     0.78900
N2          N  0.06222125  0.71927959  0.95570996    -0.79400
C3          C  0.03578744  0.72303405  0.00252494     0.81300
N4          N  0.06410478  0.72659364  0.04815387    -0.79400
C5          C  0.11757293  0.72761059  0.04763750     0.81400
N6          N  0.14314544  0.72489100  0.00167599    -0.81100
C7          C  0.37196484  0.52483999  0.02561946     0.78900
N8          N  0.35903874  0.54006706  0.97474198    -0.79400
C9          C  0.32599759  0.58215290  0.96624564     0.81300
N10         N  0.30776050  0.60875417  0.00868954    -0.79400
C11         C  0.31993958  0.59320398  0.05863767     0.81400
N12         N  0.35174891  0.55142030  0.06652305    -0.81100
C13         C  0.91643708  0.22431333  0.04392805     0.78900
N14         N  0.89021041  0.21988306  0.99743209    -0.79400
C15         C  0.91635127  0.21478505  0.95190482     0.81300
N16         N  0.96981473  0.21342367  0.95226690    -0.79400
C17         C  0.99748489  0.21663698  0.99835258     0.81400
N18         N  0.97057553  0.22252141  0.04456996    -0.81100
C19         C  0.66702106  0.41554283  0.96858690     0.78900
N20         N  0.69071423  0.38915865  0.93030765    -0.79400
C21         C  0.72208900  0.34815380  0.94115887     0.81300
N22         N  0.73119628  0.33338664  0.99186836    -0.79400
C23         C  0.71013803  0.36075300  0.03249388     0.81400
N24         N  0.67626715  0.40178838  0.02077344    -0.81100
C25         C  0.76709345  0.94036678  0.11226800     0.78900
N26         N  0.76774821  0.93695200  0.05870908    -0.79400
C27         C  0.77120388  0.98117718  0.02822859     0.81300
N28         N  0.77304501  0.02942310  0.05235696    -0.79400
C29         C  0.77224033  0.03263572  0.10625748     0.81400
N30         N  0.76961829  0.98789041  0.13537096    -0.81100
C31         C  0.57429708  0.99859127  0.35670417     0.78900
N32         N  0.59846188  0.04295148  0.33873344    -0.79400
C33         C  0.64076336  0.03936010  0.30714863     0.81300
N34         N  0.65937883  0.99113995  0.29451465    -0.79400
C35         C  0.63500104  0.94648019  0.31121921     0.81400
N36         N  0.59261568  0.95035443  0.34252957    -0.81100
C37         C  0.26496998  0.00181936  0.88878155     0.78900
N38         N  0.26128018  0.95439110  0.86592000    -0.79400
C39         C  0.25867672  0.90988823  0.89527795     0.81300
N40         N  0.25902178  0.91313023  0.94912007    -0.79400
C41         C  0.26166470  0.96139341  0.97295679     0.81400
N42         N  0.26514533  0.00544892  0.94231704    -0.81100
C43         C  0.46429327  0.94566007  0.64803976     0.78900
N44         N  0.44510560  0.99428034  0.66046560    -0.79400
C45         C  0.39990773  0.99855659  0.68797399     0.81300
N46         N  0.37387784  0.95401978  0.70238935    -0.79400
C47         C  0.39316733  0.90562640  0.69157907     0.81400
N48         N  0.43824982  0.90162406  0.66412851    -0.81100
C49         C  0.89651406  0.73520706  0.05102868     0.78900
N50         N  0.95056942  0.73059968  0.05112923    -0.79400
C51         C  0.97685629  0.72477274  0.00451788     0.81300
N52         N  0.94849890  0.72254998  0.95887033    -0.79400
C53         C  0.89519595  0.72689046  0.95905198     0.81400
N54         N  0.86972326  0.73349237  0.00473259    -0.81100
C55         C  0.59590303  0.63157700  0.99708746     0.78900
N56         N  0.62644287  0.62628231  0.95440122    -0.79400
C57         C  0.67892016  0.61887971  0.95858515     0.81300
N58         N  0.70205148  0.62137501  0.00736544    -0.79400
C59         C  0.67194428  0.62455303  0.05134028     0.81400
N60         N  0.61870810  0.62958787  0.04583182    -0.81100
C61         C  0.13727729  0.20143029  0.95269217     0.78900
N62         N  0.16304053  0.20086467  0.99942495    -0.79400
C63         C  0.13675278  0.20639820  0.04471879     0.81300
N64         N  0.08357400  0.21213170  0.04405471    -0.79400
C65         C  0.05619462  0.21207650  0.99773811     0.81400
N66         N  0.08334659  0.20725233  0.95158800    -0.81100
C67         C  0.43335679  0.29739784  0.02332675     0.78900
N68         N  0.40098141  0.31897377  0.05863553    -0.79400
C69         C  0.35081243  0.33116766  0.04724349     0.81300
N70         N  0.33301787  0.32514884  0.99660169    -0.79400
C71         C  0.36678979  0.31050860  0.95795546     0.81400
N72         N  0.41661033  0.29389974  0.97214137    -0.81100
C73         C  0.77790550  0.92626826  0.89084121     0.78900
N74         N  0.77267675  0.92874905  0.94457608    -0.79400
C75         C  0.77499682  0.97657593  0.96951829     0.81300
N76         N  0.78142423  0.02093477  0.93992378    -0.79400
C77         C  0.78680514  0.01797875  0.88677998     0.81400
N78         N  0.78520285  0.97096273  0.86294115    -0.81100
C79         C  0.69132293  0.96012483  0.58873098     0.78900
N80         N  0.68767087  0.00869112  0.61008909    -0.79400
C81         C  0.66865501  0.01503180  0.65938609     0.81300
N82         N  0.65594259  0.97112728  0.68827839    -0.79400
C83         C  0.65574272  0.92233874  0.66575586     0.81400
N84         N  0.67323321  0.91807712  0.61614668    -0.81100
C85         C  0.25819310  0.01669371  0.10991079     0.78900
N86         N  0.26204038  0.01406308  0.05613640    -0.79400
C87         C  0.25947115  0.96612279  0.03153165     0.81300
N88         N  0.25416952  0.92176573  0.06133659    -0.79400
C89         C  0.25028138  0.92470892  0.11457529     0.81400
N90         N  0.25201414  0.97189996  0.13822113    -0.81100
C91         C  0.34806995  0.98266929  0.41602837     0.78900
N92         N  0.36526000  0.02453802  0.38766315    -0.79400
C93         C  0.37914906  0.02008371  0.33687160     0.81300
N94         N  0.37619825  0.97141594  0.31416848    -0.79400
C95         C  0.36361480  0.92771958  0.34331567     0.81400
N96         N  0.34815249  0.93417922  0.39390361    -0.81100
C97         C  0.98172129  0.07447840  0.75721519     0.78900
N98         N  0.97887504  0.02082714  0.75578108    -0.79400
C99         C  0.02373957  0.99120073  0.75519088     0.81300
N100        N  0.07149669  0.01610443  0.75468405    -0.79400
C101        C  0.07391886  0.06983052  0.75595938     0.81400
N102        N  0.02909172  0.09825647  0.75767513    -0.81100
C103        C  0.03667895  0.37486351  0.66031500     0.78900
N104        N  0.07974572  0.34377737  0.65915473    -0.79400
C105        C  0.07703354  0.29303853  0.64457736     0.81300
N106        N  0.02871414  0.27090186  0.63698541    -0.79400
C107        C  0.98424227  0.30133753  0.63728859     0.81400
N108        N  0.98880084  0.35364503  0.64831409    -0.81100
C109        C  0.06195711  0.84898732  0.76341086     0.78900
N110        N  0.06512111  0.90261090  0.75950624    -0.79400
C111        C  0.02041122  0.93252518  0.75676612     0.81300
N112        N  0.97250358  0.90797791  0.75686535    -0.79400
C113        C  0.96968191  0.85440221  0.76073220     0.81400
N114        N  0.01435904  0.82563032  0.76428325    -0.81100
C115        C  0.99735985  0.60925432  0.55969604     0.78900
N116        N  0.95497689  0.62858704  0.58459856    -0.79400
C117        C  0.96062320  0.65631681  0.62921334     0.81300
N118        N  0.00951645  0.66491139  0.64967742    -0.79400
C119        C  0.05325617  0.64734931  0.62516158     0.81400
N120        N  0.04722821  0.61888141  0.57976093    -0.81100
C121        C  0.05096183  0.86698884  0.24275389     0.78900
N122        N  0.00335927  0.84390279  0.24209506    -0.79400
C123        C  0.95896360  0.87296515  0.24427946     0.81300
N124        N  0.96187544  0.92654970  0.24646608    -0.79400
C125        C  0.00980021  0.95088146  0.24614224     0.81400
N126        N  0.05435621  0.92067457  0.24492209    -0.81100
C127        C  0.98281458  0.57449419  0.33119189     0.78900
N128        N  0.94408795  0.60437531  0.35052447    -0.79400
C129        C  0.95270766  0.65311686  0.36849213     0.81300
N130        N  0.00325169  0.67177223  0.36993027    -0.79400
C131        C  0.04451814  0.63962694  0.35764135     0.81400
N132        N  0.03348718  0.59170392  0.33577067    -0.81100
C133        C  0.97283083  0.09392783  0.24153301     0.78900
N134        N  0.96911910  0.04019312  0.24469002    -0.79400
C135        C  0.01355787  0.00958735  0.24560791     0.81300
N136        N  0.06172468  0.03343989  0.24429803    -0.79400
C137        C  0.06520090  0.08693892  0.24108432     0.81400
N138        N  0.02080331  0.11646882  0.23941480    -0.81100
C139        C  0.04331673  0.33730591  0.43626083     0.78900
N140        N  0.99185908  0.33082951  0.41820452    -0.79400
C141        C  0.98227106  0.29871657  0.37537701     0.81300
N142        N  0.02408742  0.27633124  0.35135118    -0.79400
C143        C  0.07381898  0.28265773  0.37038399     0.81400
N144        N  0.08268547  0.31257411  0.41244659    -0.81100
C145        C  0.26647365  0.51593430  0.39446696     0.78900
N146        N  0.26625389  0.51293274  0.44822414    -0.79400
C147        C  0.27038157  0.46513559  0.47345249     0.81300
N148        N  0.27383673  0.42058277  0.44390523    -0.79400
C149        C  0.27415680  0.42385138  0.39004503     0.81400
N150        N  0.27077638  0.47139314  0.36615741    -0.81100
C151        C  0.06724319  0.46856662  0.14662355     0.78900
N152        N  0.09307883  0.42290638  0.15918853    -0.79400
C153        C  0.13944302  0.42417974  0.18666884     0.81300
N154        N  0.15988017  0.47138245  0.20119438    -0.79400
C155        C  0.13396982  0.51714065  0.19003701     0.81400
N156        N  0.08785940  0.51554062  0.16247122    -0.81100
O157        O  0.19777954  0.73889108  0.09348057    -0.87800
O158        O  0.13653177  0.66689143  0.37109720    -0.88000
O159        O  0.13228846  0.61098586  0.20460671    -0.89700
O160        O  0.09359011  0.78351097  0.23376131    -0.88400
O161        O  0.14066686  0.85627756  0.25981863    -0.88000
O162        O  0.20906134  0.56354050  0.21416056    -0.89400
O163        O  0.09067302  0.67817769  0.29271105    -0.87900
O164        O  0.12354838  0.71577690  0.13854485    -0.87500
Zr165      Zr  0.15151668  0.70425904  0.22856090     2.84300
O166        O  0.17780900  0.75180976  0.30327694    -1.09400
O167        O  0.22428654  0.67355490  0.18276529    -1.10200
C168        C  0.14818216  0.72791878  0.09645075     1.05300
C169        C  0.09406920  0.66415600  0.34104876     1.05200
C170        C  0.15950695  0.56750991  0.20363953     1.08200
C171        C  0.09806865  0.83334621  0.24508722     1.06000
H172        H  0.18390420  0.61970594  0.29542118     0.31500
O173        O  0.20365035  0.65012539  0.28403577    -1.30400
H174        H  0.17852298  0.79831221  0.17787692     0.31200
O175        O  0.20025468  0.77633248  0.20067997    -1.32100
O176        O  0.31134861  0.70189436  0.41467774    -0.87800
O177        O  0.36343943  0.77124650  0.13360624    -0.89300
O178        O  0.27400183  0.56419060  0.31576749    -0.87900
O179        O  0.20537736  0.84472230  0.36755707    -0.88000
O180        O  0.23790371  0.88173165  0.19660146    -0.87700
O181        O  0.30236925  0.59996999  0.14931830    -0.87500
O182        O  0.41238393  0.66953065  0.27772764    -0.87800
O183        O  0.37193946  0.83787882  0.31262783    -0.87300
O184        O  0.36774041  0.59427152  0.25466717    -0.88400
O185        O  0.29466823  0.88431743  0.30326197    -0.87500
O186        O  0.24626600  0.60750462  0.38909400    -0.87900
O187        O  0.29442437  0.67352737  0.09651833    -0.87700
O188        O  0.26048433  0.83422806  0.12374986    -0.87300
O189        O  0.20876286  0.76773101  0.41600187    -0.87700
O190        O  0.38461154  0.72932930  0.36977010    -0.88000
O191        O  0.41226084  0.77090069  0.21076681    -0.89300
Zr192      Zr  0.23066208  0.69727737  0.35791969     2.83100
Zr193      Zr  0.27290284  0.74583846  0.15437241     2.83500
Zr194      Zr  0.27822054  0.62296697  0.23916391     2.84100
Zr195      Zr  0.22786629  0.82410367  0.27467085     2.83400
Zr196      Zr  0.35390869  0.74604927  0.28162863     2.84200
O197        O  0.30069609  0.79760687  0.22614945    -1.09900
O198        O  0.30523870  0.67290014  0.31095596    -1.09400
C199        C  0.36120616  0.71353992  0.41138684     1.05200
C200        C  0.40692461  0.77698776  0.16041508     1.07900
C201        C  0.26216455  0.56609409  0.36506578     1.05400
C202        C  0.20264334  0.81787306  0.41140741     1.05800
C203        C  0.24890245  0.87712928  0.14709734     1.05400
C204        C  0.30396390  0.62415587  0.10426409     1.04900
C205        C  0.40976030  0.61968341  0.26753989     1.05300
C206        C  0.34345378  0.88030927  0.31664703     1.04900
H207        H  0.35732483  0.68261183  0.19016903     0.31500
O208        O  0.32733469  0.69488064  0.20942371    -1.31000
H209        H  0.29215097  0.79035462  0.35959511     0.31600
O210        O  0.28005431  0.77064726  0.32941658    -1.32400
C211        C  0.41446518  0.23255802  0.45365187     0.78900
N212        N  0.46807097  0.23250815  0.45272746    -0.79400
C213        C  0.49690508  0.23036018  0.49843438     0.81300
N214        N  0.47114057  0.22690882  0.54537325    -0.79400
C215        C  0.41715631  0.22704313  0.54606926     0.81400
N216        N  0.38959616  0.23031657  0.50013236    -0.81100
C217        C  0.11766008  0.13820848  0.49840728     0.78900
N218        N  0.14314788  0.12378832  0.54358974    -0.79400
C219        C  0.19318610  0.10562125  0.54381563     0.81300
N220        N  0.21845683  0.10254041  0.49684201    -0.79400
C221        C  0.19175540  0.11183016  0.45031325     0.81400
N222        N  0.14169646  0.13078323  0.45185643    -0.81100
O223        O  0.25921452  0.04539608  0.80544283    -0.87800
O224        O  0.33805792  0.32017859  0.86623608    -0.88000
O225        O  0.39277609  0.15400449  0.87268016    -0.89700
O226        O  0.21961210  0.18871228  0.90834919    -0.88400
O227        O  0.14527075  0.21296357  0.86138642    -0.88000
O228        O  0.44041971  0.16365466  0.79702746    -0.89400
O229        O  0.33139148  0.24182501  0.91194050    -0.87900
O230        O  0.28533598  0.09021302  0.87975940    -0.87500
Zr231      Zr  0.29948925  0.17845754  0.85127234     2.84300
O232        O  0.25221076  0.25352391  0.82565568    -1.09400
O233        O  0.32789892  0.13203923  0.77724980    -1.10200
C234        C  0.27014494  0.04871678  0.85561952     1.05300
C235        C  0.34377524  0.29053522  0.90840521     1.05200
C236        C  0.43648322  0.15403962  0.84662881     1.08200
C237        C  0.16933346  0.20030537  0.90436892     1.06000
H238        H  0.38346457  0.24370609  0.81908324     0.31500
O239        O  0.35303464  0.23222274  0.79893044    -1.30400
H240        H  0.20458015  0.12894477  0.82341594     0.31200
O241        O  0.22662842  0.15091591  0.80180313    -1.32100
O242        O  0.29583859  0.36670190  0.69402641    -0.87800
O243        O  0.22362543  0.09157139  0.63383734    -0.89300
O244        O  0.43830307  0.26589337  0.73145641    -0.87900
O245        O  0.16075314  0.31733680  0.80503308    -0.88000
O246        O  0.12180627  0.14807468  0.76757228    -0.87700
O247        O  0.40217672  0.09308269  0.70175319    -0.87500
O248        O  0.33720940  0.23329848  0.59251995    -0.87800
O249        O  0.16610610  0.26331969  0.63472766    -0.87300
O250        O  0.41150340  0.20381941  0.63655324    -0.88400
O251        O  0.11715948  0.24332463  0.70744194    -0.87500
O252        O  0.39234495  0.33870443  0.75799999    -0.87900
O253        O  0.32458535  0.04654047  0.70497530    -0.87700
O254        O  0.16499845  0.07453126  0.73897752    -0.87300
O255        O  0.23758112  0.36501100  0.79994062    -0.87700
O256        O  0.27062145  0.32266558  0.61910595    -0.88000
O257        O  0.23763505  0.16864859  0.58786468    -0.89300
Zr258      Zr  0.30542901  0.30697328  0.77265935     2.83100
Zr259      Zr  0.25419945  0.10495599  0.72731453     2.83500
Zr260      Zr  0.38159196  0.18621747  0.72514764     2.84100
Zr261      Zr  0.17946107  0.22554566  0.77536768     2.83400
Zr262      Zr  0.25959805  0.23430318  0.65006603     2.84200
O263        O  0.20609760  0.17963375  0.70077184    -1.09900
O264        O  0.33322970  0.26068263  0.69909515    -1.09400
C265        C  0.28352878  0.36454631  0.64389455     1.05200
C266        C  0.22265539  0.12070834  0.59121257     1.07900
C267        C  0.43432130  0.31554518  0.74323077     1.05400
C268        C  0.18867126  0.36007031  0.81062871     1.05800
C269        C  0.12371673  0.09892603  0.75433376     1.05400
C270        C  0.37462104  0.04988148  0.69848562     1.04900
C271        C  0.38703672  0.22143866  0.59512618     1.05300
C272        C  0.12243707  0.26168241  0.66096803     1.04900
H273        H  0.31958364  0.14018461  0.64499311     0.31500
O274        O  0.30789122  0.15912046  0.67547560    -1.31000
H275        H  0.21096514  0.31146067  0.71227390     0.31600
O276        O  0.23121877  0.28099646  0.72342001    -1.32400
C277        C  0.39388508  0.71011020  0.45945803     0.78900
N278        N  0.44751523  0.71438003  0.45840530    -0.79400
C279        C  0.47655836  0.71381402  0.50422151     0.81300
N280        N  0.45105258  0.71009765  0.55107515    -0.79400
C281        C  0.39738970  0.70597466  0.55170385     0.81400
N282        N  0.36959084  0.70566391  0.50593611    -0.81100
C283        C  0.15608602  0.91279183  0.51148575     0.78900
N284        N  0.16776172  0.89141359  0.46394553    -0.79400
C285        C  0.19334619  0.84466903  0.46174087     0.81300
N286        N  0.20705530  0.81930545  0.50734077    -0.79400
C287        C  0.19682880  0.84044957  0.55490487     0.81400
N288        N  0.17100251  0.88718823  0.55688418    -0.81100
C289        C  0.27301792  0.50603531  0.61442629     0.78900
N290        N  0.26949629  0.50753358  0.56078328    -0.79400
C291        C  0.27227501  0.46226803  0.53251739     0.81300
N292        N  0.27762177  0.41522551  0.55909863    -0.79400
C293        C  0.28144509  0.41411464  0.61310998     0.81400
N294        N  0.27938471  0.45954172  0.63988393    -0.81100
C295        C  0.18730937  0.45589335  0.91405511     0.78900
N296        N  0.17302987  0.50047533  0.88749150    -0.79400
C297        C  0.15804564  0.49937863  0.83598492     0.81300
N298        N  0.15852206  0.45195560  0.81073776    -0.79400
C299        C  0.16836173  0.40614941  0.83803109     0.81400
N300        N  0.18361883  0.40899772  0.88937354    -0.81100
O301        O  0.19881225  0.72506098  0.91165485    -0.87800
O302        O  0.14832962  0.66094786  0.62647633    -0.88000
O303        O  0.10397608  0.76529575  0.77250788    -0.89700
O304        O  0.14527448  0.59065798  0.80827399    -0.88400
O305        O  0.21891737  0.54250989  0.78862389    -0.88000
O306        O  0.15221964  0.83887286  0.75085699    -0.89400
O307        O  0.10181666  0.66200769  0.70316742    -0.87900
O308        O  0.12492586  0.69978891  0.86461342    -0.87500
Zr309      Zr  0.15939202  0.68440562  0.77774956     2.84300
O310        O  0.21374510  0.63328137  0.72522439    -1.09400
O311        O  0.20915657  0.75658990  0.80787130    -1.10200
C312        C  0.14840838  0.71501775  0.90719700     1.05300
C313        C  0.10501614  0.65649433  0.65271480     1.05200
C314        C  0.10917807  0.81554147  0.76282830     1.08200
C315        C  0.17254904  0.54703959  0.80660199     1.06000
H316        H  0.15888488  0.74987504  0.68671816     0.31500
O317        O  0.18869720  0.73646788  0.70692289    -1.30400
H318        H  0.22123719  0.63485050  0.85772913     0.31200
O319        O  0.23310113  0.65532800  0.82794852    -1.32100
O320        O  0.31775909  0.69405052  0.59641151    -0.87800
O321        O  0.37325830  0.76001523  0.87535474    -0.89300
O322        O  0.21412574  0.83459272  0.64761344    -0.87900
O323        O  0.28096536  0.54905206  0.69579740    -0.88000
O324        O  0.31170872  0.57988849  0.86972862    -0.87700
O325        O  0.24733194  0.86330179  0.81632904    -0.87500
O326        O  0.38813885  0.81396185  0.71057769    -0.87800
O327        O  0.42153319  0.64707765  0.73581244    -0.87300
O328        O  0.31339983  0.86466687  0.71438597    -0.88400
O329        O  0.37748483  0.57304162  0.76251797    -0.87500
O330        O  0.21833191  0.76031738  0.59698870    -0.87900
O331        O  0.26925150  0.81678620  0.89155067    -0.87700
O332        O  0.30671043  0.65665857  0.91652132    -0.87300
O333        O  0.25399943  0.59615134  0.62220243    -0.87700
O334        O  0.39268356  0.71512173  0.64381191    -0.88000
O335        O  0.42306338  0.73342697  0.80600548    -0.89300
Zr336      Zr  0.24045633  0.68455897  0.65279979     2.83100
Zr337      Zr  0.28116974  0.72816005  0.85892165     2.83500
Zr338      Zr  0.23993707  0.80765400  0.73772899     2.84100
Zr339      Zr  0.28779516  0.60369311  0.77515896     2.83400
Zr340      Zr  0.36301869  0.72332106  0.73305581     2.84200
O341        O  0.33544473  0.67552535  0.80677865    -1.09900
O342        O  0.29105761  0.75540250  0.68339322    -1.09400
C343        C  0.36770598  0.70457140  0.60068298     1.05200
C344        C  0.41731043  0.75637785  0.85011706     1.07900
C345        C  0.21054083  0.81013005  0.60318306     1.05400
C346        C  0.26906772  0.55364267  0.64600935     1.05800
C347        C  0.31486505  0.60678764  0.91337320     1.05400
C348        C  0.25770376  0.85973047  0.86649695     1.04900
C349        C  0.36312601  0.85827008  0.70649396     1.05300
C350        C  0.41921589  0.59751370  0.74771165     1.04900
H351        H  0.33264092  0.80686698  0.79900997     0.31500
O352        O  0.31215357  0.77716105  0.78690267    -1.31000
H353        H  0.33574004  0.63185542  0.67959134     0.31600
O354        O  0.31379015  0.65294169  0.70177397    -1.32400
C355        C  0.75907621  0.43876741  0.38709912     0.78900
N356        N  0.76281055  0.43612768  0.44074007    -0.79400
C357        C  0.76071946  0.48085299  0.47000649     0.81300
N358        N  0.75605829  0.52845714  0.44466843    -0.79400
C359        C  0.75236124  0.53076054  0.39088400     0.81400
N360        N  0.75351159  0.48592880  0.36286193    -0.81100
C361        C  0.84361206  0.49010699  0.08943025     0.78900
N362        N  0.84683543  0.53640034  0.11530034    -0.79400
C363        C  0.86411562  0.53805071  0.16625040     0.81300
N364        N  0.87608216  0.49183056  0.19187886    -0.79400
C365        C  0.87658165  0.44519363  0.16531695     0.81400
N366        N  0.86010718  0.44535465  0.11431784    -0.81100
C367        C  0.55159634  0.59648757  0.26267981     0.78900
N368        N  0.55451093  0.54281747  0.26004113    -0.79400
C369        C  0.50986145  0.51281018  0.26161593     0.81300
N370        N  0.46219444  0.53741516  0.26494312    -0.79400
C371        C  0.45970487  0.59105057  0.26782964     0.81400
N372        N  0.50434976  0.61986281  0.26689546    -0.81100
C373        C  0.49452893  0.83294229  0.05925515     0.78900
N374        N  0.45059331  0.81713866  0.08478689    -0.79400
C375        C  0.45453840  0.79141568  0.13156307     0.81300
N376        N  0.50288335  0.78173048  0.15305354    -0.79400
C377        C  0.54744391  0.79596091  0.12755341     0.81400
N378        N  0.54322374  0.82182371  0.08054431    -0.81100
O379        O  0.77447732  0.89691226  0.19547853    -0.87800
O380        O  0.69807487  0.61919217  0.14270681    -0.88000
O381        O  0.81539650  0.75169852  0.09551305    -0.89700
O382        O  0.64223180  0.78467643  0.12874913    -0.88400
O383        O  0.59461084  0.78002155  0.20480462    -0.88000
O384        O  0.88906005  0.72725605  0.14355399    -0.89400
O385        O  0.70922016  0.69469002  0.09341335    -0.87900
O386        O  0.74920083  0.85097756  0.12161496    -0.87500
Zr387      Zr  0.73582480  0.76291173  0.15189520     2.84300
O388        O  0.68147374  0.71099462  0.20494826    -1.09400
O389        O  0.80817084  0.79149216  0.20186666    -1.10200
C390        C  0.76346851  0.89306740  0.14539175     1.05300
C391        C  0.69574085  0.64636899  0.09907196     1.05200
C392        C  0.86528200  0.73903718  0.09994373     1.08200
C393        C  0.59858520  0.78677014  0.15480871     1.06000
H394        H  0.79387889  0.66896214  0.15117617     0.31500
O395        O  0.78253414  0.68900997  0.18099350    -1.30400
H396        H  0.68693979  0.84104468  0.21127964     0.31200
O397        O  0.70671888  0.81100718  0.22439472    -1.32100
O398        O  0.73857801  0.57825364  0.31154866    -0.87800
O399        O  0.81271230  0.85346034  0.36748255    -0.89300
O400        O  0.87314526  0.62568265  0.20118466    -0.87900
O401        O  0.59456577  0.67973635  0.27005854    -0.88000
O402        O  0.63280734  0.85235804  0.29850468    -0.87700
O403        O  0.91113982  0.79526780  0.23426658    -0.87500
O404        O  0.86545264  0.68647507  0.37707622    -0.87800
O405        O  0.69491975  0.71511805  0.41151480    -0.87300
O406        O  0.91471680  0.70108874  0.30317528    -0.88400
O407        O  0.62129903  0.74408772  0.36593832    -0.87500
O408        O  0.79649497  0.57806410  0.20830401    -0.87900
O409        O  0.86829908  0.86938888  0.26184542    -0.87700
O410        O  0.71056672  0.89876895  0.29619616    -0.87300
O411        O  0.64107418  0.60633684  0.24619860    -0.87700
O412        O  0.76259542  0.62289088  0.38639640    -0.88000
O413        O  0.78988211  0.78081469  0.41659120    -0.89300
Zr414      Zr  0.72891735  0.63719368  0.23430861     2.83100
Zr415      Zr  0.77967877  0.83914742  0.27478861     2.83500
Zr416      Zr  0.85502019  0.71731513  0.23094792     2.84100
Zr417      Zr  0.65243447  0.75861872  0.27743319     2.83400
Zr418      Zr  0.77289249  0.71222834  0.35568530     2.84200
O419        O  0.72531041  0.78695870  0.32780721    -1.09900
O420        O  0.80263551  0.66343433  0.28408708    -1.09400
C421        C  0.75048009  0.58072517  0.36141760     1.05200
C422        C  0.81058864  0.82636401  0.41133650     1.07900
C423        C  0.84497709  0.58312921  0.19593262     1.05400
C424        C  0.59873055  0.62978338  0.25949005     1.05800
C425        C  0.66046389  0.89548073  0.30159707     1.05400
C426        C  0.90923013  0.84456282  0.24646333     1.04900
C427        C  0.90921947  0.68647023  0.35123644     1.05300
C428        C  0.64530411  0.72715573  0.40788599     1.04900
H429        H  0.85702906  0.77701406  0.32415881     0.31500
O430        O  0.82695358  0.76517170  0.30370259    -1.31000
H431        H  0.67825783  0.66217547  0.32790488     0.31600
O432        O  0.69997280  0.68460907  0.30644356    -1.32400
C433        C  0.61775957  0.71310562  0.54836888     0.78900
N434        N  0.64254247  0.71694876  0.50211084    -0.79400
C435        C  0.61504391  0.72149939  0.45630517     0.81300
N436        N  0.56117823  0.72116606  0.45656321    -0.79400
C437        C  0.53530153  0.71641842  0.50318013     0.81400
N438        N  0.56402895  0.71310242  0.54908966    -0.81100
C439        C  0.92094282  0.80429981  0.49709664     0.78900
N440        N  0.89920990  0.80849256  0.54533653    -0.79400
C441        C  0.84945695  0.82755917  0.55053514     0.81300
N442        N  0.82074656  0.83993734  0.50599636    -0.79400
C443        C  0.84323706  0.83926122  0.45751147     0.81400
N444        N  0.89315897  0.82128490  0.45405893    -0.81100
C445        C  0.56163018  0.57421034  0.74400690     0.78900
N446        N  0.56496791  0.52049189  0.74602587    -0.79400
C447        C  0.52037982  0.49037851  0.74707218     0.81300
N448        N  0.47233206  0.51486912  0.74745590    -0.79400
C449        C  0.46931030  0.56858807  0.74561908     0.81400
N450        N  0.51396063  0.59746754  0.74345442    -0.81100
C451        C  0.49674267  0.87075409  0.83088449     0.78900
N452        N  0.54631514  0.85154772  0.83802830    -0.79400
C453        C  0.55469021  0.80182684  0.85668300     0.81300
N454        N  0.51188742  0.77050054  0.86588142    -0.79400
C455        C  0.46194040  0.79065678  0.86286626     0.81400
N456        N  0.45527932  0.84055820  0.84497883    -0.81100
C457        C  0.76705782  0.42571030  0.60699707     0.78900
N458        N  0.76763332  0.42927796  0.55335588    -0.79400
C459        C  0.76233585  0.47718189  0.52880731     0.81300
N460        N  0.75719027  0.52121949  0.55882954    -0.79400
C461        C  0.75623676  0.51737077  0.61262883     0.81400
N462        N  0.76104435  0.46971093  0.63591484    -0.81100
C463        C  0.96348488  0.47151517  0.85943318     0.78900
N464        N  0.94475834  0.42504744  0.84012336    -0.79400
C465        C  0.90043730  0.42411809  0.80955801     0.81300
N466        N  0.87412775  0.46994221  0.79942037    -0.79400
C467        C  0.89258314  0.51662209  0.81768246     0.81400
N468        N  0.93740141  0.51726272  0.84768094    -0.81100
O469        O  0.81604767  0.73957413  0.91213008    -0.87800
O470        O  0.86909199  0.67265516  0.63278387    -0.88000
O471        O  0.88738680  0.60946309  0.80307102    -0.89700
O472        O  0.92165016  0.77632428  0.77189676    -0.88400
O473        O  0.87772198  0.85113890  0.74482319    -0.88000
O474        O  0.81185621  0.55962385  0.80018821    -0.89400
O475        O  0.92072665  0.68021830  0.70764267    -0.87900
O476        O  0.88911375  0.71018455  0.86911555    -0.87500
Zr477      Zr  0.86255091  0.70038065  0.77862993     2.84300
O478        O  0.83344110  0.74781467  0.70472912    -1.09400
O479        O  0.78986655  0.67387531  0.82751034    -1.10200
C480        C  0.86483577  0.72533445  0.91022521     1.05300
C481        C  0.91380342  0.67122305  0.65822148     1.05200
C482        C  0.86214683  0.56525763  0.80677119     1.08200
C483        C  0.91954053  0.82587096  0.75935310     1.06000
H484        H  0.82978190  0.61692978  0.71368672     0.31500
O485        O  0.80952811  0.64645005  0.72580300    -1.30400
H486        H  0.83816822  0.79558418  0.82826051     0.31200
O487        O  0.81566135  0.77415292  0.80614330    -1.32100
O488        O  0.69971981  0.70255169  0.59362298    -0.87800
O489        O  0.64713992  0.77710413  0.86703243    -0.89300
O490        O  0.74495268  0.55984485  0.69615556    -0.87900
O491        O  0.81899114  0.83773777  0.64003141    -0.88000
O492        O  0.78541086  0.87926693  0.81089720    -0.87700
O493        O  0.70969240  0.60557563  0.86975669    -0.87500
O494        O  0.60432212  0.65758113  0.73358046    -0.87800
O495        O  0.64384988  0.83249144  0.69625213    -0.87300
O496        O  0.65160450  0.58462707  0.76097006    -0.88400
O497        O  0.71802986  0.88166911  0.71493858    -0.87500
O498        O  0.76594439  0.60782832  0.62221801    -0.87900
O499        O  0.72176814  0.68286151  0.91504282    -0.87700
O500        O  0.75583986  0.83592268  0.88426989    -0.87300
O501        O  0.80628168  0.76159181  0.59315753    -0.87700
O502        O  0.62616226  0.72528217  0.63916023    -0.88000
O503        O  0.59875708  0.76246536  0.79123734    -0.89300
Zr504      Zr  0.77780853  0.69536562  0.65302573     2.83100
Zr505      Zr  0.74064790  0.74824042  0.85191936     2.83500
Zr506      Zr  0.73860702  0.61748568  0.77576177     2.84100
Zr507      Zr  0.78787780  0.82182677  0.73221479     2.83400
Zr508      Zr  0.65964899  0.73891607  0.72643156     2.84200
O509        O  0.71253789  0.79519967  0.77773635    -1.09900
O510        O  0.70720895  0.66496988  0.70155519    -1.09400
C511        C  0.64979016  0.71296222  0.59692573     1.05200
C512        C  0.60348912  0.77739560  0.83893309     1.07900
C513        C  0.75485154  0.56463895  0.64594929     1.05400
C514        C  0.82178926  0.80932888  0.59761785     1.05800
C515        C  0.77307180  0.87708776  0.86047045     1.05400
C516        C  0.70798185  0.63475095  0.91192190     1.04900
C517        C  0.60893524  0.60767467  0.74579616     1.05300
C518        C  0.67077655  0.87636908  0.69752354     1.04900
H519        H  0.65866253  0.67999536  0.82091915     0.31500
O520        O  0.68871039  0.69140339  0.80098689    -1.31000
H521        H  0.72029007  0.78956455  0.64800822     0.31600
O522        O  0.73192453  0.76972072  0.67873530    -1.32400
C523        C  0.47182806  0.37007353  0.26072429     0.78900
N524        N  0.51960123  0.34696748  0.26042081    -0.79400
C525        C  0.56427531  0.37591691  0.25850603     0.81300
N526        N  0.56125812  0.42960337  0.25826556    -0.79400
C527        C  0.51326584  0.45401161  0.26000511     0.81400
N528        N  0.46854014  0.42385970  0.26042713    -0.81100
C529        C  0.53630873  0.07149492  0.16325781     0.78900
N530        N  0.57821110  0.10178673  0.15088879    -0.79400
C531        C  0.57228107  0.15264595  0.13597042     0.81300
N532        N  0.52265269  0.17359288  0.13402854    -0.79400
C533        C  0.47935259  0.14255223  0.14162177     0.81400
N534        N  0.48697920  0.09174414  0.15743007    -0.81100
O535        O  0.83401504  0.22061610  0.08761118    -0.87800
O536        O  0.88605588  0.28614219  0.37474953    -0.88000
O537        O  0.88902347  0.35369275  0.19276240    -0.89700
O538        O  0.93106214  0.17853105  0.23196705    -0.88400
O539        O  0.88216192  0.10519926  0.25301532    -0.88000
O540        O  0.81425864  0.40167087  0.20933391    -0.89400
O541        O  0.93237655  0.28353393  0.29801710    -0.87900
O542        O  0.90810192  0.24495129  0.13501081    -0.87500
Zr543      Zr  0.87511417  0.25973818  0.22312450     2.84300
O544        O  0.84515132  0.20842009  0.29398663    -1.09400
O545        O  0.80086160  0.28869737  0.17350505    -1.10200
C546        C  0.88442649  0.23037262  0.09215498     1.05300
C547        C  0.92947886  0.29029215  0.34842376     1.05200
C548        C  0.86139764  0.39718211  0.19340534     1.08200
C549        C  0.92568305  0.12821307  0.24199097     1.06000
H550        H  0.84018782  0.34114119  0.28810630     0.31500
O551        O  0.82029059  0.31138638  0.27516486    -1.30400
H552        H  0.84711778  0.16493477  0.17142481     0.31200
O553        O  0.82544057  0.18726703  0.19259234    -1.32100
O554        O  0.71501701  0.25357121  0.40401538    -0.87800
O555        O  0.66144183  0.18270607  0.12623662    -0.89300
O556        O  0.75041325  0.39626293  0.30480538    -0.87900
O557        O  0.81891354  0.11095023  0.35329252    -0.88000
O558        O  0.78419092  0.07976007  0.18547566    -0.87700
O559        O  0.72246460  0.36444190  0.12983324    -0.87500
O560        O  0.61208835  0.29742527  0.26581456    -0.87800
O561        O  0.64561477  0.13117242  0.28907821    -0.87300
O562        O  0.65597429  0.37163080  0.23958349    -0.88400
O563        O  0.72009676  0.08031441  0.28415306    -0.87500
O564        O  0.77914869  0.34930407  0.37784203    -0.87900
O565        O  0.72738028  0.28708801  0.08403481    -0.87700
O566        O  0.76335256  0.12633747  0.11005363    -0.87300
O567        O  0.81624611  0.18522870  0.40417644    -0.87700
O568        O  0.64043907  0.23152049  0.35652036    -0.88000
O569        O  0.61068297  0.20704467  0.19585655    -0.89300
Zr570      Zr  0.79364252  0.26085212  0.34815450     2.83100
Zr571      Zr  0.75298387  0.21594602  0.14195623     2.83500
Zr572      Zr  0.74580684  0.34118977  0.22520664     2.84100
Zr573      Zr  0.79396607  0.13716238  0.26300661     2.83400
Zr574      Zr  0.67094087  0.22187574  0.26759972     2.84200
O575        O  0.72171366  0.16778715  0.21403079    -1.09900
O576        O  0.72035313  0.29229467  0.29885094    -1.09400
C577        C  0.66499045  0.24284540  0.39968846     1.05200
C578        C  0.61710998  0.18557848  0.15106961     1.07900
C579        C  0.76288838  0.39160860  0.35453317     1.05400
C580        C  0.82316476  0.13529514  0.39770227     1.05800
C581        C  0.77374891  0.08310533  0.13525031     1.05400
C582        C  0.71947499  0.33705090  0.08639436     1.04900
C583        C  0.61436940  0.34709377  0.25480047     1.05300
C584        C  0.67046324  0.08674997  0.29213507     1.04900
H585        H  0.66873357  0.28226884  0.17279118     0.31500
O586        O  0.69846406  0.26940123  0.19345108    -1.31000
H587        H  0.73008071  0.16897459  0.34647294     0.31600
O588        O  0.74287712  0.18980934  0.31733251    -1.32400
C589        C  0.48172758  0.34840517  0.74149352     0.78900
N590        N  0.47908622  0.40195624  0.74495203    -0.79400
C591        C  0.52395575  0.43156663  0.74614655     0.81300
N592        N  0.57172023  0.40659716  0.74483021    -0.79400
C593        C  0.57398011  0.35289245  0.74134992     0.81400
N594        N  0.52898694  0.32460762  0.73945391    -0.81100
C595        C  0.54022285  0.10224105  0.93923963     0.78900
N596        N  0.49168823  0.11482844  0.91855099    -0.79400
C597        C  0.48754604  0.14405321  0.87365232     0.81300
N598        N  0.53211052  0.16049309  0.84962075    -0.79400
C599        C  0.58043141  0.14942450  0.87048354     0.81400
N600        N  0.58439479  0.11990886  0.91514279    -0.81100
C601        C  0.63842445  0.23339853  0.54095080     0.78900
N602        N  0.58485988  0.23001104  0.54216264    -0.79400
C603        C  0.55568018  0.23237838  0.49661560     0.81300
N604        N  0.58108453  0.23718565  0.44958888    -0.79400
C605        C  0.63490928  0.24088526  0.44879773     0.81400
N606        N  0.66270878  0.23921956  0.49453884    -0.81100
C607        C  0.87689649  0.03063072  0.48675977     0.78900
N608        N  0.86462097  0.05027424  0.53499079    -0.79400
C609        C  0.83846154  0.09676604  0.53832297     0.81300
N610        N  0.82535030  0.12359090  0.49336489    -0.79400
C611        C  0.83636450  0.10410745  0.44537069     0.81400
N612        N  0.86221024  0.05762731  0.44222899    -0.81100
O613        O  0.83688442  0.20196757  0.90569305    -0.87800
O614        O  0.89280539  0.27512968  0.62695861    -0.88000
O615        O  0.93899589  0.15711671  0.76630554    -0.89700
O616        O  0.90246140  0.33025464  0.79318133    -0.88400
O617        O  0.82628948  0.37832685  0.78221989    -0.88000
O618        O  0.89178409  0.08462542  0.73974602    -0.89400
O619        O  0.94140177  0.26080878  0.70323783    -0.87900
O620        O  0.91088763  0.22535044  0.86040313    -0.87500
Zr621      Zr  0.88245469  0.23662443  0.77006260     2.84300
O622        O  0.83022685  0.29099010  0.71517758    -1.09400
O623        O  0.83374822  0.16465004  0.79877629    -1.10200
C624        C  0.88631523  0.21337183  0.90267955     1.05300
C625        C  0.93613143  0.27622503  0.65536063     1.05200
C626        C  0.93437377  0.10747401  0.75482825     1.08200
C627        C  0.87557532  0.37401553  0.79362048     1.06000
H628        H  0.88372166  0.17692520  0.67641884     0.31500
O629        O  0.85393017  0.18924138  0.69598929    -1.30400
H630        H  0.82383314  0.28752834  0.84567356     0.31200
O631        O  0.81066391  0.26712559  0.81635523    -1.32100
O632        O  0.72091404  0.23914887  0.58503242    -0.87800
O633        O  0.67144709  0.17069268  0.86804250    -0.89300
O634        O  0.82538684  0.09537929  0.63262186    -0.87900
O635        O  0.76124053  0.37731512  0.68514737    -0.88000
O636        O  0.73961642  0.34043480  0.85205631    -0.87700
O637        O  0.79855050  0.06038991  0.80453772    -0.87500
O638        O  0.66009220  0.10546646  0.68804153    -0.87800
O639        O  0.62065797  0.27403482  0.72876251    -0.87300
O640        O  0.73597721  0.05746396  0.70146249    -0.88400
O641        O  0.66655982  0.34833043  0.75254443    -0.87500
O642        O  0.82251073  0.17279368  0.58493184    -0.87900
O643        O  0.77571531  0.10803631  0.87707804    -0.87700
O644        O  0.74289971  0.26641814  0.90463379    -0.87300
O645        O  0.78624543  0.33386258  0.61095289    -0.87700
O646        O  0.64746363  0.21392203  0.63085872    -0.88000
O647        O  0.62170888  0.17187440  0.79145490    -0.89300
Zr648      Zr  0.80058354  0.24391003  0.64213008     2.83100
Zr649      Zr  0.76162935  0.19540405  0.84539638     2.83500
Zr650      Zr  0.80445710  0.11717115  0.72551981     2.84100
Zr651      Zr  0.75670040  0.31841689  0.76108181     2.83400
Zr652      Zr  0.67843147  0.19701234  0.71937666     2.84200
O653        O  0.70687656  0.24728235  0.79138887    -1.09900
O654        O  0.75165922  0.17079191  0.67119864    -1.09400
C655        C  0.67097271  0.22868075  0.58882017     1.05200
C656        C  0.62769483  0.16513890  0.84168928     1.07900
C657        C  0.82848734  0.12260665  0.58906938     1.05400
C658        C  0.77190076  0.37544030  0.63566234     1.05800
C659        C  0.73706551  0.31618991  0.89690094     1.05400
C660        C  0.78799765  0.06526758  0.85409086     1.04900
C661        C  0.68780008  0.06231784  0.68640147     1.05300
C662        C  0.62384055  0.32358397  0.74056758     1.04900
H663        H  0.71208779  0.11455736  0.78630527     0.31500
O664        O  0.73192224  0.14455863  0.77394885    -1.31000
H665        H  0.70452009  0.29252633  0.66801237     0.31600
O666        O  0.72695039  0.27000499  0.68954568    -1.32400
O667        O  0.21618940  0.19738081  0.09098144    -0.87800
O668        O  0.16401119  0.26508701  0.36653266    -0.88000
O669        O  0.11331453  0.16424011  0.22901932    -0.89700
O670        O  0.14522814  0.33111772  0.20073381    -0.88400
O671        O  0.22001220  0.38191016  0.20482784    -0.88000
O672        O  0.15800652  0.08961117  0.25496434    -0.89400
O673        O  0.11178365  0.25817323  0.29197685    -0.87900
O674        O  0.14289392  0.22600119  0.13400326    -0.87500
Zr675      Zr  0.17160351  0.24006556  0.22302577     2.84300
O676        O  0.22324425  0.29464419  0.27663487    -1.09400
O677        O  0.22005310  0.16794036  0.19456335    -1.10200
C678        C  0.16696354  0.20967658  0.09329678     1.05300
C679        C  0.11921870  0.26651379  0.34123812     1.05200
C680        C  0.11577318  0.11478180  0.24119372     1.08200
C681        C  0.16991307  0.37570576  0.19789254     1.06000
H682        H  0.17160784  0.17908930  0.31648566     0.31500
O683        O  0.20105530  0.19183634  0.29649639    -1.30400
H684        H  0.22929951  0.28907621  0.14470456     0.31200
O685        O  0.24311329  0.26949333  0.17467842    -1.32100
O686        O  0.33295480  0.24067763  0.40818584    -0.87800
O687        O  0.38776139  0.17056504  0.13150045    -0.89300
O688        O  0.22060825  0.10175950  0.36066950    -0.87900
O689        O  0.28521283  0.38180808  0.30696512    -0.88000
O690        O  0.31956771  0.34196201  0.13462761    -0.87700
O691        O  0.25015358  0.06352333  0.18922263    -0.87500
O692        O  0.38976806  0.11095373  0.30795157    -0.87800
O693        O  0.42985705  0.28597667  0.26826880    -0.87300
O694        O  0.31789168  0.05999223  0.28554565    -0.88400
O695        O  0.38143196  0.35888969  0.24278863    -0.87500
O696        O  0.23732409  0.17622275  0.40898090    -0.87900
O697        O  0.27959799  0.10782342  0.11632907    -0.87700
O698        O  0.30406094  0.26702782  0.08649688    -0.87300
O699        O  0.26487923  0.33285640  0.38039876    -0.87700
O700        O  0.40689778  0.21847868  0.36292286    -0.88000
O701        O  0.43501884  0.17851093  0.20922603    -0.89300
Zr702      Zr  0.25602230  0.24503431  0.34824225     2.83100
Zr703      Zr  0.29372374  0.19660218  0.14832056     2.83500
Zr704      Zr  0.24819292  0.11962225  0.26786651     2.84100
Zr705      Zr  0.29405374  0.32514572  0.22772979     2.83400
Zr706      Zr  0.37513966  0.20406770  0.27466841     2.84200
O707        O  0.34534354  0.25276898  0.20072702    -1.09900
O708        O  0.30331772  0.17189471  0.32164735    -1.09400
C709        C  0.38288193  0.23098515  0.40502772     1.05200
C710        C  0.43078002  0.16689688  0.16044489     1.07900
C711        C  0.22077047  0.12895487  0.40396865     1.05400
C712        C  0.27526175  0.37648492  0.35698541     1.05800
C713        C  0.31856551  0.31507367  0.09116511     1.05400
C714        C  0.26256896  0.06621586  0.13986529     1.04900
C715        C  0.36398643  0.06635896  0.30544484     1.05300
C716        C  0.42458734  0.33615707  0.25744756     1.04900
H717        H  0.34278048  0.11930133  0.21017669     0.31500
O718        O  0.32245284  0.14892258  0.22191325    -1.31000
H719        H  0.34746810  0.29913756  0.32301486     0.31600
O720        O  0.32624865  0.27675660  0.30060259    -1.32400
C721        C  0.60057305  0.95498688  0.13528303    -0.12200
C722        C  0.55477871  0.94393279  0.10532781     0.05000
C723        C  0.50940517  0.94020558  0.13649749    -0.11000
C724        C  0.50267615  0.98085181  0.17278887    -0.12600
C725        C  0.54501602  0.01608497  0.17969290    -0.02400
C726        C  0.59593554  0.99542545  0.17200706    -0.11500
C727        C  0.54915439  0.97965311  0.05770119     0.05000
H728        H  0.47434022  0.92089629  0.12142088     0.06900
H729        H  0.46309158  0.99152394  0.18381677     0.10400
H730        H  0.63090479  0.01742814  0.18316961     0.10600
H731        H  0.63922427  0.94639595  0.12022832     0.06900
C732        C  0.50281024  0.00999805  0.04917988    -0.12200
C733        C  0.50100731  0.05109421  0.01263405    -0.11500
C734        C  0.54483702  0.06280117  0.98221669    -0.02400
C735        C  0.59095872  0.03255810  0.98935172    -0.12600
C736        C  0.59306314  0.99145639  0.02647992    -0.11000
H737        H  0.46748759  0.00321063  0.07136837     0.06900
H738        H  0.46471768  0.07318918  0.00762410     0.10600
H739        H  0.62515451  0.03987543  0.96548560     0.10400
H740        H  0.62930926  0.96928621  0.03115899     0.06900
C741        C  0.02898114  0.83470857  0.43152578    -0.12200
C742        C  0.03722896  0.86769355  0.47519338     0.05000
C743        C  0.04595955  0.83923312  0.52266790    -0.11000
C744        C  0.01109349  0.79741704  0.53202341    -0.12600
C745        C  0.97564952  0.78492809  0.49073695    -0.02400
C746        C  0.99564894  0.79146026  0.43955331    -0.11500
C747        C  0.99765027  0.91188321  0.47836367     0.05000
H748        H  0.06417923  0.85810518  0.55640879     0.06900
H749        H  0.00294900  0.78624282  0.57234213     0.10400
H750        H  0.97511905  0.77501882  0.40574000     0.10600
H751        H  0.03427366  0.84912819  0.39170423     0.06900
C752        C  0.97205325  0.92270936  0.52624285    -0.12200
C753        C  0.93079051  0.95868676  0.52828004    -0.11500
C754        C  0.91364560  0.98561619  0.48277833    -0.02400
C755        C  0.93731520  0.97396616  0.43456680    -0.12600
C756        C  0.97881012  0.93788379  0.43240673    -0.11000
H757        H  0.98352868  0.90360883  0.56293345     0.06900
H758        H  0.91352224  0.96660017  0.56606656     0.10600
H759        H  0.92522746  0.99420591  0.39859032     0.10400
H760        H  0.99644841  0.93090923  0.39465420     0.06900
C761        C  0.52257797  0.99702039  0.86200139    -0.12200
C762        C  0.47697403  0.99034828  0.89242542     0.05000
C763        C  0.43123259  0.98129412  0.86160718    -0.11000
C764        C  0.43647461  0.94537900  0.82054723    -0.12600
C765        C  0.48748881  0.92547607  0.81204671    -0.02400
C766        C  0.52911628  0.96100524  0.82115190    -0.11500
C767        C  0.48262378  0.95232221  0.93812604     0.05000
H768        H  0.39244066  0.98741898  0.87745238     0.06900
H769        H  0.40181414  0.92397501  0.80742267     0.10400
H770        H  0.56869023  0.95207087  0.80870931     0.10600
H771        H  0.55775790  0.01445168  0.87898845     0.06900
C772        C  0.43889807  0.93946655  0.96907206    -0.12200
C773        C  0.44194989  0.89875927  0.00645110    -0.11500
C774        C  0.48888111  0.86989332  0.01424071    -0.02400
C775        C  0.53204202  0.88135555  0.98281619    -0.12600
C776        C  0.52917591  0.92202694  0.94569130    -0.11000
H777        H  0.40230868  0.96110321  0.96469429     0.06900
H778        H  0.40796194  0.89125400  0.03055176     0.10600
H779        H  0.56870452  0.85990172  0.98792538     0.10400
H780        H  0.56401734  0.92907572  0.92283747     0.06900
C781        C  0.15408886  0.51172727  0.02899382    -0.12200
C782        C  0.11986195  0.46809804  0.03045202     0.05000
C783        C  0.14741964  0.42000375  0.03533170    -0.11000
C784        C  0.18961208  0.41381868  0.00102194    -0.12600
C785        C  0.20326570  0.45822130  0.97039334    -0.02400
C786        C  0.19649089  0.50740083  0.99473401    -0.11500
C787        C  0.07743445  0.46910910  0.98770474     0.05000
H788        H  0.12820497  0.38516759  0.05070878     0.06900
H789        H  0.20075603  0.37446108  0.98950230     0.10400
H790        H  0.21313266  0.54297936  0.97806881     0.10600
H791        H  0.14062969  0.55054160  0.03973007     0.06900
C792        C  0.05941205  0.51727213  0.96541718    -0.12200
C793        C  0.02471364  0.51823000  0.92201949    -0.11500
C794        C  0.00679570  0.47115238  0.89935518    -0.02400
C795        C  0.02582514  0.42317497  0.91987098    -0.12600
C796        C  0.06026545  0.42207796  0.96325905    -0.11000
H797        H  0.07131043  0.55464595  0.98182372     0.06900
H798        H  0.01063122  0.55597400  0.90736630     0.10600
H799        H  0.01270468  0.38603294  0.90365282     0.10400
H800        H  0.07288660  0.38378235  0.97755388     0.06900
C801        C  0.05285247  0.00793842  0.55950149    -0.12200
C802        C  0.03641984  0.03324790  0.51221814     0.06600
C803        C  0.06395901  0.02094200  0.46586079    -0.11000
C804        C  0.10498635  0.98461045  0.46659869    -0.12600
C805        C  0.11970577  0.95832123  0.51333301    -0.02400
C806        C  0.09387106  0.97108058  0.56003041    -0.11500
C807        C  0.99736845  0.07818095  0.51261427     0.05000
H808        H  0.05436997  0.03929744  0.42828718     0.06900
H809        H  0.12400545  0.97588402  0.42987140     0.10400
H810        H  0.10388608  0.95113543  0.59676441     0.10600
H811        H  0.03353375  0.01592387  0.59618029     0.06900
C812        C  0.99253684  0.10655730  0.46463362    -0.12200
C813        C  0.02997497  0.14655492  0.45715089    -0.11500
C814        C  0.06291602  0.15841135  0.50069599    -0.02400
C815        C  0.03934698  0.15314932  0.55039792    -0.12600
C816        C  0.00373193  0.11140713  0.55637299    -0.11000
H817        H  0.97508052  0.08819915  0.43017605     0.06900
H818        H  0.04128715  0.15682781  0.41742375     0.10600
H819        H  0.05803346  0.16939560  0.58535303     0.10400
H820        H  0.99491973  0.09772498  0.59574854     0.06900
C821        C  0.88525763  0.52047831  0.96917332    -0.12200
C822        C  0.91016116  0.47118050  0.97682147     0.05000
C823        C  0.87384187  0.42935010  0.97928925    -0.11000
C824        C  0.82970712  0.43789546  0.01042626    -0.12600
C825        C  0.82559532  0.48801082  0.03355223    -0.02400
C826        C  0.84245173  0.53036838  0.00187344    -0.11500
C827        C  0.95203733  0.46988155  0.02001672     0.05000
H828        H  0.88578761  0.38927180  0.97166554     0.06900
H829        H  0.81063218  0.40403187  0.02779883     0.10400
H830        H  0.83329270  0.57068425  0.01180636     0.10600
H831        H  0.90685314  0.55364552  0.95334054     0.06900
C832        C  0.96900240  0.51695584  0.04450519    -0.12200
C833        C  0.00328351  0.51603964  0.08784164    -0.11500
C834        C  0.02269159  0.46822007  0.10821636    -0.02400
C835        C  0.00462979  0.42096817  0.08593613    -0.12600
C836        C  0.96975788  0.42174424  0.04257579    -0.11000
H837        H  0.95643139  0.55528674  0.03029539     0.06900
H838        H  0.01625811  0.55331120  0.10388217     0.10600
H839        H  0.01898781  0.38333116  0.10060450     0.10400
H840        H  0.95774125  0.38438808  0.02619995     0.06900
C841        C  0.99431684  0.44622868  0.35760139    -0.12200
C842        C  0.95333398  0.45900490  0.39223272     0.05000
C843        C  0.90764501  0.47679752  0.36512765    -0.11000
C844        C  0.91506382  0.50792815  0.31980045    -0.12600
C845        C  0.96773749  0.52249306  0.30924499    -0.02400
C846        C  0.00449116  0.48201457  0.31676394    -0.11500
C847        C  0.96770142  0.49290620  0.43894098     0.05000
H848        H  0.87028712  0.47918476  0.38480812     0.06900
H849        H  0.88260473  0.53248657  0.30601748     0.10400
H850        H  0.04300588  0.48345370  0.29917093     0.10600
H851        H  0.02120099  0.41454058  0.36550677     0.06900
C852        C  0.93067552  0.50269326  0.47804258    -0.12200
C853        C  0.93979723  0.54180593  0.51571417    -0.11500
C854        C  0.98671734  0.57193773  0.51609626    -0.02400
C855        C  0.02367806  0.56263585  0.47733517    -0.12600
C856        C  0.01430652  0.52382265  0.43952729    -0.11000
H857        H  0.89402816  0.48085563  0.47877228     0.06900
H858        H  0.91043677  0.54746132  0.54553306     0.10600
H859        H  0.05996982  0.58504915  0.47643778     0.10400
H860        H  0.04377951  0.51918818  0.40988466     0.06900
C861        C  0.04690641  0.48365553  0.58771986    -0.12200
C862        C  0.10195939  0.47627022  0.58787506     0.05000
C863        C  0.12687455  0.46915681  0.63733317    -0.11000
C864        C  0.09700567  0.44796383  0.67834968    -0.12600
C865        C  0.04476457  0.43229446  0.66636575    -0.02400
C866        C  0.01757169  0.46285520  0.62885765    -0.11500
C867        C  0.11881330  0.44216301  0.54439693     0.05000
H868        H  0.16934589  0.46658625  0.64037030     0.06900
H869        H  0.11808293  0.42985662  0.71129433     0.10400
H870        H  0.97588408  0.45624027  0.62155731     0.10600
H871        H  0.02603768  0.48738437  0.55078542     0.06900
C872        C  0.11569117  0.38790115  0.55468324    -0.12200
C873        C  0.08333010  0.35598793  0.52308401    -0.11500
C874        C  0.06223892  0.37573315  0.47541770    -0.02400
C875        C  0.08282208  0.42447437  0.45786623    -0.12600
C876        C  0.10850456  0.45865726  0.49276383    -0.11000
H877        H  0.13423841  0.37195457  0.58978161     0.06900
H878        H  0.07765521  0.31505882  0.53397785     0.10600
H879        H  0.08121619  0.43617536  0.41724579     0.10400
H880        H  0.11692036  0.49876444  0.48082652     0.06900
C881        C  0.54936670  0.89200472  0.53941621    -0.12200
C882        C  0.57730837  0.93725437  0.52362714     0.05000
C883        C  0.57034567  0.98380340  0.55300329    -0.11000
C884        C  0.53626442  0.98543666  0.59525964    -0.12600
C885        C  0.50744944  0.94085546  0.60975475    -0.02400
C886        C  0.51528474  0.89366462  0.58215645    -0.11500
C887        C  0.62016177  0.93409766  0.48359428     0.05000
H888        H  0.59156363  0.01961141  0.54410040     0.06900
H889        H  0.53147743  0.02230497  0.61569759     0.10400
H890        H  0.49337975  0.85845361  0.59207653     0.10600
H891        H  0.55371516  0.85524469  0.51873337     0.06900
C892        C  0.64634095  0.98191345  0.47157786    -0.12200
C893        C  0.69383028  0.99170353  0.49883744    -0.11500
C894        C  0.71060496  0.95234150  0.53438721    -0.02400
C895        C  0.70299637  0.90062665  0.51598639    -0.12600
C896        C  0.65443871  0.89070317  0.49063339    -0.11000
H897        H  0.62483776  0.01569882  0.45676298     0.06900
H898        H  0.70652873  0.03211128  0.50383208     0.10600
H899        H  0.72302157  0.86790663  0.53534057     0.10400
H900        H  0.63974210  0.85068751  0.49056508     0.06900
C901        C  0.47273706  0.95780756  0.45497923    -0.12200
C902        C  0.46645788  0.00370917  0.48543705     0.05000
C903        C  0.49516235  0.04895806  0.47098785    -0.11000
C904        C  0.52818019  0.04834621  0.42744556    -0.12600
C905        C  0.53414364  0.00218018  0.39788322    -0.02400
C906        C  0.50583100  0.95718427  0.41207620    -0.11500
C907        C  0.42326334  0.00661975  0.52496659     0.05000
H908        H  0.49176958  0.08502494  0.49301997     0.06900
H909        H  0.55033479  0.08354690  0.41803286     0.10400
H910        H  0.50958912  0.92096014  0.39030050     0.10600
H911        H  0.45131074  0.92194193  0.46311056     0.06900
C912        C  0.39628911  0.95894766  0.53535072    -0.12200
C913        C  0.34983239  0.94994904  0.50617093    -0.11500
C914        C  0.33340853  0.99046599  0.47174474    -0.02400
C915        C  0.34219671  0.04191438  0.49047334    -0.12600
C916        C  0.38978576  0.05051351  0.51797432    -0.11000
H917        H  0.41727307  0.92464023  0.54979574     0.06900
H918        H  0.33753308  0.90966717  0.49952396     0.10600
H919        H  0.32321875  0.07532364  0.47121290     0.10400
H920        H  0.40505765  0.09028862  0.51952206     0.06900
C921        C  0.50455607  0.54607707  0.98006492    -0.12200
C922        C  0.50974302  0.55126215  0.92496599     0.05000
C923        C  0.50842968  0.60255662  0.90361608    -0.11000
C924        C  0.52099444  0.64458109  0.93706639    -0.12600
C925        C  0.53807497  0.63234719  0.98897376    -0.02400
C926        C  0.51418610  0.58901024  0.01250032    -0.11500
C927        C  0.54541493  0.51220321  0.90166231     0.05000
H928        H  0.51027812  0.60869405  0.86141145     0.06900
H929        H  0.53307798  0.68131317  0.91907515     0.10400
H930        H  0.52101781  0.58106970  0.05411789     0.10600
H931        H  0.50893667  0.50821329  0.99878709     0.06900
C932        C  0.59840197  0.52780569  0.89907877    -0.12200
C933        C  0.63720936  0.49856409  0.92625771    -0.11500
C934        C  0.62430324  0.44994077  0.94904216    -0.02400
C935        C  0.57566750  0.42744252  0.93325509    -0.12600
C936        C  0.53563789  0.45889451  0.91121716    -0.11000
H937        H  0.60828709  0.56570706  0.88235479     0.06900
H938        H  0.67730401  0.51306346  0.92848061     0.10600
H939        H  0.56836132  0.38578851  0.93694250     0.10400
H940        H  0.49612430  0.44335961  0.90684213     0.06900
C941        C  0.51259316  0.33446780  0.11658437    -0.12200
C942        C  0.53283183  0.36882242  0.07821532     0.05000
C943        C  0.55658243  0.34242311  0.03641962    -0.11000
C944        C  0.52951470  0.29896621  0.01531694    -0.12600
C945        C  0.48630817  0.28061991  0.04364771    -0.02400
C946        C  0.49189489  0.28627317  0.09902986    -0.11500
C947        C  0.49617688  0.41310683  0.06299060     0.05000
H948        H  0.58648405  0.36150758  0.01449568     0.06900
H949        H  0.53495962  0.28836918  0.97458859     0.10400
H950        H  0.46490367  0.26615354  0.12488113     0.10600
H951        H  0.49996046  0.34929993  0.15403023     0.06900
C952        C  0.46992664  0.41348176  0.01310503    -0.12200
C953        C  0.42814600  0.44775747  0.00146490    -0.11500
C954        C  0.41266100  0.48450055  0.03855403    -0.02400
C955        C  0.43865681  0.48461558  0.08845565    -0.12600
C956        C  0.47953311  0.44918433  0.10058013    -0.11000
H957        H  0.48032043  0.38611302  0.98282501     0.06900
H958        H  0.40903959  0.44642664  0.96299070     0.10600
H959        H  0.42781470  0.51253374  0.11832766     0.10400
H960        H  0.49762930  0.44942651  0.13956419     0.06900
loop_ 
_geom_bond_atom_site_label_1 
_geom_bond_atom_site_label_2 
_geom_bond_distance 
_geom_bond_site_symmetry_2 
_ccdc_geom_bond_type 
C1            N2   1.377       .  A
C1            N6   1.348   1_556  A
C1          C312   1.491       .  S
N2            C3   1.380   1_556  A
C3            N4   1.355       .  A
C3           C51   1.498   1_455  S
N4            C5   1.357       .  A
C5            N6   1.348       .  A
C5          C168   1.450       .  S
C7            N8   1.378   1_554  A
C7           N12   1.353       .  A
C7          C954   1.485       .  S
N8            C9   1.371       .  A
C9           N10   1.366   1_556  A
C9          C347   1.497       .  S
N10          C11   1.354       .  A
C11          N12   1.344       .  A
C11         C204   1.470       .  S
C13          N14   1.350   1_554  A
C13          N18   1.374       .  A
C13         C546   1.491       .  S
N14          C15   1.351       .  A
C15          N16   1.357       .  A
C15         C624   1.452       .  S
N16          C17   1.356       .  A
C17          N18   1.378   1_556  A
C17          C65   1.495   1_655  S
C19          N20   1.338       .  A
C19          N24   1.382   1_556  A
C19         C934   1.468       .  S
N20          C21   1.334       .  A
C21          N22   1.353       .  A
C21         C659   1.449       .  S
N22          C23   1.367   1_556  A
C23          N24   1.377       .  A
C23         C582   1.504       .  S
C25          N26   1.364       .  A
C25          N30   1.348       .  A
C25         C390   1.463       .  S
N26          C27   1.361       .  A
C27          N28   1.376   1_565  A
C27          C75   1.501   1_554  S
N28          C29   1.372       .  A
C29          N30   1.351   1_545  A
C29         C581   1.484       .  S
C31          N32   1.361   1_565  A
C31          N36   1.364       .  A
C31         C905   1.477   1_565  S
N32          C33   1.356       .  A
C33          N34   1.356   1_545  A
C33         C584   1.471       .  S
N34          C35   1.360       .  A
C35          N36   1.354       .  A
C35         C425   1.472       .  S
C37          N38   1.345   1_545  A
C37          N42   1.363       .  A
C37         C234   1.459       .  S
N38          C39   1.350       .  A
C39          N40   1.370       .  A
C39         C348   1.475       .  S
N40          C41   1.373       .  A
C41          N42   1.360   1_565  A
C41          C87   1.495   1_556  S
C43          N44   1.369       .  A
C43          N48   1.362       .  A
C43         C885   1.484       .  S
N44          C45   1.359       .  A
C45          N46   1.360       .  A
C45         C270   1.482   1_565  S
N46          C47   1.355       .  A
C47          N48   1.355       .  A
C47         C349   1.474       .  S
C49          N50   1.377       .  A
C49          N54   1.347       .  A
C49         C392   1.490       .  S
N50          C51   1.379       .  A
C51          N52   1.354   1_554  A
N52          C53   1.357       .  A
C53          N54   1.350   1_556  A
C53         C480   1.448       .  S
C55          N56   1.352       .  A
C55          N60   1.356   1_556  A
C55         C925   1.478       .  S
N56          C57   1.347       .  A
C57          N58   1.362   1_556  A
C57         C516   1.461       .  S
N58          C59   1.368       .  A
C59          N60   1.361       .  A
C59         C391   1.458       .  S
C61          N62   1.343       .  A
C61          N66   1.376       .  A
C61         C237   1.485       .  S
N62          C63   1.349   1_556  A
C63          N64   1.357       .  A
C63         C678   1.443       .  S
N64          C65   1.354   1_554  A
C65          N66   1.377       .  A
C67          N68   1.348       .  A
C67          N72   1.363   1_554  A
C67         C945   1.491       .  S
N68          C69   1.336       .  A
C69          N70   1.364   1_554  A
C69         C713   1.451       .  S
N70          C71   1.369       .  A
C71          N72   1.373       .  A
C71         C235   1.471       .  S
C73          N74   1.375       .  A
C73          N78   1.346       .  A
C73         C515   1.478       .  S
N74          C75   1.376       .  A
C75          N76   1.359   1_565  A
N76          C77   1.361       .  A
C77          N78   1.344   1_545  A
C77         C660   1.453       .  S
C79          N80   1.356   1_565  A
C79          N84   1.353       .  A
C79         C894   1.488       .  S
N80          C81   1.361       .  A
C81          N82   1.370   1_545  A
C81         C661   1.467       .  S
N82          C83   1.370       .  A
C83          N84   1.349       .  A
C83         C518   1.459       .  S
C85          N86   1.373       .  A
C85          N90   1.350   1_545  A
C85         C714   1.479       .  S
N86          C87   1.375   1_545  A
C87          N88   1.359       .  A
N88          C89   1.360       .  A
C89          N90   1.346       .  A
C89         C203   1.457       .  S
C91          N92   1.355   1_565  A
C91          N96   1.359       .  A
C91         C914   1.485       .  S
N92          C93   1.349       .  A
C93          N94   1.370   1_545  A
C93         C715   1.461       .  S
N94          C95   1.368       .  A
C95          N96   1.362       .  A
C95         C206   1.474       .  S
C97          N98   1.365       .  A
C97         N102   1.345   1_655  A
C97         C626   1.465       .  S
N98          C99   1.365   1_645  A
C99         N100   1.367   1_565  A
C99         C111   1.492       .  S
N100        C101   1.366       .  A
C101        N102   1.349       .  A
C101        C269   1.465       .  S
C103        N104   1.349       .  A
C103        N108   1.360   1_455  A
C103        C865   1.482       .  S
N104        C105   1.345       .  A
C105        N106   1.360       .  A
C105        C272   1.452       .  S
N106        C107   1.368   1_455  A
C107        N108   1.365       .  A
C107        C625   1.457       .  S
C109        N110   1.367       .  A
C109        N114   1.346       .  A
C109        C314   1.469       .  S
N110        C111   1.366       .  A
C111        N112   1.366   1_455  A
N112        C113   1.365       .  A
C113        N114   1.350   1_655  A
C113        C483   1.464       .  S
C115        N116   1.353       .  A
C115        N120   1.378   1_655  A
C115        C854   1.485       .  S
N116        C117   1.345       .  A
C117        N118   1.354   1_655  A
C117        C481   1.462       .  S
N118        C119   1.360       .  A
C119        N120   1.373       .  A
C119        C313   1.495       .  S
C121        N122   1.343       .  A
C121        N126   1.367       .  A
C121        C171   1.469       .  S
N122        C123   1.349   1_455  A
C123        N124   1.364       .  A
C123        C426   1.455       .  S
N124        C125   1.364   1_655  A
C125        N126   1.367       .  A
C125        C135   1.494   1_565  S
C127        N128   1.345       .  A
C127        N132   1.361   1_655  A
C127        C845   1.486       .  S
N128        C129   1.340       .  A
C129        N130   1.367   1_655  A
C129        C427   1.450       .  S
N130        C131   1.370       .  A
C131        N132   1.369       .  A
C131        C169   1.470       .  S
C133        N134   1.369       .  A
C133        N138   1.347   1_655  A
C133        C549   1.480       .  S
N134        C135   1.369   1_655  A
C135        N136   1.365       .  A
N136        C137   1.363       .  A
C137        N138   1.353       .  A
C137        C680   1.465       .  S
C139        N140   1.386   1_455  A
C139        N144   1.338       .  A
C139        C874   1.474       .  S
N140        C141   1.383       .  A
C141        N142   1.361   1_655  A
C141        C547   1.509       .  S
N142        C143   1.353       .  A
C143        N144   1.332       .  A
C143        C679   1.443       .  S
C145        N146   1.366       .  A
C145        N150   1.352       .  A
C145        C201   1.473       .  S
N146        C147   1.370       .  A
C147        N148   1.367       .  A
C147        C291   1.500       .  S
N148        C149   1.369       .  A
C149        N150   1.347       .  A
C149        C712   1.474       .  S
C151        N152   1.364       .  A
C151        N156   1.364       .  A
C151        C834   1.479       .  S
N152        C153   1.357       .  A
C153        N154   1.358       .  A
C153        C681   1.476       .  S
N154        C155   1.360       .  A
C155        N156   1.353       .  A
C155        C170   1.475       .  S
O157       Zr193   2.439       .  S
O157        C168   1.293       .  A
O158       Zr192   2.537       .  S
O158        C169   1.310       .  A
O159       Zr165   2.497       .  S
O159        C170   1.303       .  A
O160       Zr165   2.498       .  S
O160        C171   1.305       .  A
O161       Zr195   2.381       .  S
O161        C171   1.279       .  A
O162       Zr194   2.395       .  S
O162        C170   1.284       .  A
O163       Zr165   2.356       .  S
O163        C169   1.276       .  A
O164       Zr165   2.395       .  S
O164        C168   1.283       .  A
Zr165       O166   2.345       .  S
Zr165       O167   2.339       .  S
Zr165       O175   2.321       .  S
Zr165       O173   2.348       .  S
O166       Zr192   2.352       .  S
O166       Zr195   2.349       .  S
O167       Zr193   2.327       .  S
O167       Zr194   2.337       .  S
H172        O173   0.965       .  S
O173       Zr192   2.328       .  S
O173       Zr194   2.335       .  S
H174        O175   0.965       .  S
O175       Zr193   2.341       .  S
O175       Zr195   2.342       .  S
O176       Zr192   2.484       .  S
O176        C199   1.303       .  A
O177       Zr193   2.452       .  S
O177        C200   1.294       .  A
O178       Zr194   2.443       .  S
O178        C201   1.294       .  A
O179       Zr195   2.497       .  S
O179        C202   1.302       .  A
O180       Zr195   2.469       .  S
O180        C203   1.299       .  A
O181       Zr194   2.449       .  S
O181        C204   1.294       .  A
O182       Zr196   2.449       .  S
O182        C205   1.296       .  A
O183       Zr196   2.508       .  S
O183        C206   1.303       .  A
O184       Zr194   2.410       .  S
O184        C205   1.285       .  A
O185       Zr195   2.390       .  S
O185        C206   1.281       .  A
O186       Zr192   2.435       .  S
O186        C201   1.290       .  A
O187       Zr193   2.432       .  S
O187        C204   1.289       .  A
O188       Zr193   2.387       .  S
O188        C203   1.282       .  A
O189       Zr192   2.402       .  S
O189        C202   1.286       .  A
O190       Zr196   2.389       .  S
O190        C199   1.283       .  A
O191       Zr196   2.430       .  S
O191        C200   1.290       .  A
Zr192       O198   2.343       .  S
Zr192       O210   2.361       .  S
Zr193       O197   2.355       .  S
Zr193       O208   2.329       .  S
Zr194       O198   2.323       .  S
Zr194       O208   2.338       .  S
Zr195       O197   2.343       .  S
Zr195       O210   2.328       .  S
Zr196       O197   2.326       .  S
Zr196       O198   2.353       .  S
Zr196       O210   2.340       .  S
Zr196       O208   2.346       .  S
C199        C277   1.464       .  S
C200        C375   1.469       .  S
C202        C285   1.477       .  S
C205        C371   1.461       .  S
H207        O208   0.966       .  S
H209        O210   0.965       .  S
C211        N212   1.361       .  A
C211        N216   1.349       .  A
C211        C709   1.460       .  S
N212        C213   1.360       .  A
C213        N214   1.372       .  A
C213        C603   1.494       .  S
N214        C215   1.370       .  A
C215        N216   1.350       .  A
C215        C271   1.479       .  S
C217        N218   1.353       .  A
C217        N222   1.355       .  A
C217        C814   1.483       .  S
N218        C219   1.351       .  A
C219        N220   1.368       .  A
C219        C266   1.459       .  S
N220        C221   1.369       .  A
C221        N222   1.360       .  A
C221        C711   1.462       .  S
O223       Zr259   2.483       .  S
O223        C234   1.302       .  A
O224       Zr258   2.526       .  S
O224        C235   1.308       .  A
O225       Zr231   2.496       .  S
O225        C236   1.302       .  A
O226       Zr231   2.529       .  S
O226        C237   1.311       .  A
O227       Zr261   2.384       .  S
O227        C237   1.278       .  A
O228       Zr260   2.400       .  S
O228        C236   1.286       .  A
O229       Zr231   2.370       .  S
O229        C235   1.279       .  A
O230       Zr231   2.377       .  S
O230        C234   1.280       .  A
Zr231       O232   2.333       .  S
Zr231       O233   2.353       .  S
Zr231       O241   2.327       .  S
Zr231       O239   2.347       .  S
O232       Zr258   2.347       .  S
O232       Zr261   2.339       .  S
O233       Zr259   2.346       .  S
O233       Zr260   2.352       .  S
C236        C597   1.475       .  S
H238        O239   0.965       .  S
O239       Zr258   2.335       .  S
O239       Zr260   2.344       .  S
H240        O241   0.965       .  S
O241       Zr259   2.350       .  S
O241       Zr261   2.328       .  S
O242       Zr258   2.503       .  S
O242        C265   1.306       .  A
O243       Zr259   2.509       .  S
O243        C266   1.304       .  A
O244       Zr260   2.487       .  S
O244        C267   1.303       .  A
O245       Zr261   2.505       .  S
O245        C268   1.303       .  A
O246       Zr261   2.459       .  S
O246        C269   1.297       .  A
O247       Zr260   2.502       .  S
O247        C270   1.303       .  A
O248       Zr262   2.475       .  S
O248        C271   1.300       .  A
O249       Zr262   2.506       .  S
O249        C272   1.304       .  A
O250       Zr260   2.425       .  S
O250        C271   1.287       .  A
O251       Zr261   2.357       .  S
O251        C272   1.274       .  A
O252       Zr258   2.383       .  S
O252        C267   1.281       .  A
O253       Zr259   2.402       .  S
O253        C270   1.286       .  A
O254       Zr259   2.414       .  S
O254        C269   1.286       .  A
O255       Zr258   2.384       .  S
O255        C268   1.281       .  A
O256       Zr262   2.388       .  S
O256        C265   1.281       .  A
O257       Zr262   2.367       .  S
O257        C266   1.278       .  A
Zr258       O264   2.337       .  S
Zr258       O276   2.339       .  S
Zr259       O263   2.341       .  S
Zr259       O274   2.348       .  S
Zr260       O264   2.337       .  S
Zr260       O274   2.343       .  S
Zr261       O263   2.344       .  S
Zr261       O276   2.340       .  S
Zr262       O263   2.336       .  S
Zr262       O264   2.327       .  S
Zr262       O276   2.343       .  S
Zr262       O274   2.347       .  S
C265        C293   1.475       .  S
C267        C589   1.465       .  S
C268        C299   1.466       .  S
H273        O274   0.967       .  S
H275        O276   0.966       .  S
C277        N278   1.366       .  A
C277        N282   1.345       .  A
N278        C279   1.365       .  A
C279        N280   1.367       .  A
C279        C437   1.493       .  S
N280        C281   1.366       .  A
C281        N282   1.348       .  A
C281        C343   1.466       .  S
C283        N284   1.366       .  A
C283        N288   1.365       .  A
C283        C805   1.481       .  S
N284        C285   1.355       .  A
C285        N286   1.358       .  A
N286        C287   1.356       .  A
C287        N288   1.358       .  A
C287        C345   1.477       .  S
C289        N290   1.363       .  A
C289        N294   1.348       .  A
C289        C346   1.462       .  S
N290        C291   1.364       .  A
C291        N292   1.371       .  A
N292        C293   1.373       .  A
C293        N294   1.346       .  A
C295        N296   1.357       .  A
C295        N300   1.354       .  A
C295        C785   1.481       .  S
N296        C297   1.355       .  A
C297        N298   1.370       .  A
C297        C315   1.466       .  S
N298        C299   1.368       .  A
C299        N300   1.355       .  A
O301       Zr337   2.504       .  S
O301        C312   1.307       .  A
O302       Zr336   2.494       .  S
O302        C313   1.300       .  A
O303       Zr309   2.490       .  S
O303        C314   1.304       .  A
O304       Zr309   2.523       .  S
O304        C315   1.308       .  A
O305       Zr339   2.366       .  S
O305        C315   1.276       .  A
O306       Zr338   2.393       .  S
O306        C314   1.283       .  A
O307       Zr309   2.441       .  S
O307        C313   1.294       .  A
O308       Zr309   2.423       .  S
O308        C312   1.287       .  A
Zr309       O310   2.339       .  S
Zr309       O311   2.352       .  S
Zr309       O319   2.357       .  S
Zr309       O317   2.353       .  S
O310       Zr336   2.352       .  S
O310       Zr339   2.365       .  S
O311       Zr337   2.330       .  S
O311       Zr338   2.338       .  S
H316        O317   0.966       .  S
O317       Zr336   2.336       .  S
O317       Zr338   2.358       .  S
H318        O319   0.966       .  S
O319       Zr337   2.349       .  S
O319       Zr339   2.356       .  S
O320       Zr336   2.461       .  S
O320        C343   1.298       .  A
O321       Zr337   2.502       .  S
O321        C344   1.303       .  A
O322       Zr338   2.458       .  S
O322        C345   1.295       .  A
O323       Zr339   2.461       .  S
O323        C346   1.298       .  A
O324       Zr339   2.532       .  S
O324        C347   1.309       .  A
O325       Zr338   2.461       .  S
O325        C348   1.298       .  A
O326       Zr340   2.453       .  S
O326        C349   1.294       .  A
O327       Zr340   2.440       .  S
O327        C350   1.293       .  A
O328       Zr338   2.439       .  S
O328        C349   1.292       .  A
O329       Zr339   2.434       .  S
O329        C350   1.288       .  A
O330       Zr336   2.437       .  S
O330        C345   1.292       .  A
O331       Zr337   2.427       .  S
O331        C348   1.288       .  A
O332       Zr337   2.401       .  S
O332        C347   1.287       .  A
O333       Zr336   2.410       .  S
O333        C346   1.286       .  A
O334       Zr340   2.412       .  S
O334        C343   1.285       .  A
O335       Zr340   2.391       .  S
O335        C344   1.278       .  A
Zr336       O342   2.340       .  S
Zr336       O354   2.355       .  S
Zr337       O341   2.354       .  S
Zr337       O352   2.349       .  S
Zr338       O342   2.335       .  S
Zr338       O352   2.326       .  S
Zr339       O341   2.329       .  S
Zr339       O354   2.339       .  S
Zr340       O341   2.339       .  S
Zr340       O342   2.341       .  S
Zr340       O354   2.318       .  S
Zr340       O352   2.347       .  S
C344        C455   1.462       .  S
C350        C449   1.470       .  S
H351        O352   0.966       .  S
H353        O354   0.966       .  S
C355        N356   1.364       .  A
C355        N360   1.347       .  A
C355        C579   1.466       .  S
N356        C357   1.365       .  A
C357        N358   1.367       .  A
C357        C459   1.494       .  S
N358        C359   1.367       .  A
C359        N360   1.349       .  A
C359        C421   1.466       .  S
C361        N362   1.354       .  A
C361        N366   1.357       .  A
C361        C825   1.483       .  S
N362        C363   1.359       .  A
C363        N364   1.367       .  A
C363        C423   1.465       .  S
N364        C365   1.369       .  A
C365        N366   1.353       .  A
C365        C548   1.461       .  S
C367        N368   1.367       .  A
C367        N372   1.344       .  A
C367        C424   1.468       .  S
N368        C369   1.366       .  A
C369        N370   1.366       .  A
C369        C527   1.497       .  S
N370        C371   1.366       .  A
C371        N372   1.349       .  A
C373        N374   1.359       .  A
C373        N378   1.368       .  A
C373        C774   1.476       .  S
N374        C375   1.351       .  A
C375        N376   1.355       .  A
N376        C377   1.361       .  A
C377        N378   1.359       .  A
C377        C393   1.476       .  S
O379       Zr415   2.480       .  S
O379        C390   1.301       .  A
O380       Zr414   2.486       .  S
O380        C391   1.299       .  A
O381       Zr387   2.515       .  S
O381        C392   1.309       .  A
O382       Zr387   2.496       .  S
O382        C393   1.302       .  A
O383       Zr417   2.392       .  S
O383        C393   1.285       .  A
O384       Zr416   2.407       .  S
O384        C392   1.283       .  A
O385       Zr387   2.382       .  S
O385        C391   1.281       .  A
O386       Zr387   2.383       .  S
O386        C390   1.282       .  A
Zr387       O388   2.343       .  S
Zr387       O389   2.331       .  S
Zr387       O397   2.350       .  S
Zr387       O395   2.326       .  S
O388       Zr414   2.335       .  S
O388       Zr417   2.343       .  S
O389       Zr415   2.348       .  S
O389       Zr416   2.333       .  S
H394        O395   0.965       .  S
O395       Zr414   2.334       .  S
O395       Zr416   2.332       .  S
H396        O397   0.966       .  S
O397       Zr415   2.346       .  S
O397       Zr417   2.348       .  S
O398       Zr414   2.463       .  S
O398        C421   1.298       .  A
O399       Zr415   2.513       .  S
O399        C422   1.305       .  A
O400       Zr416   2.499       .  S
O400        C423   1.302       .  A
O401       Zr417   2.490       .  S
O401        C424   1.304       .  A
O402       Zr417   2.497       .  S
O402        C425   1.303       .  A
O403       Zr416   2.439       .  S
O403        C426   1.294       .  A
O404       Zr418   2.487       .  S
O404        C427   1.301       .  A
O405       Zr418   2.457       .  S
O405        C428   1.297       .  A
O406       Zr416   2.388       .  S
O406        C427   1.282       .  A
O407       Zr417   2.421       .  S
O407        C428   1.287       .  A
O408       Zr414   2.386       .  S
O408        C423   1.282       .  A
O409       Zr415   2.404       .  S
O409        C426   1.284       .  A
O410       Zr415   2.391       .  S
O410        C425   1.284       .  A
O411       Zr414   2.386       .  S
O411        C424   1.281       .  A
O412       Zr418   2.407       .  S
O412        C421   1.284       .  A
O413       Zr418   2.375       .  S
O413        C422   1.277       .  A
Zr414       O420   2.338       .  S
Zr414       O432   2.332       .  S
Zr415       O419   2.346       .  S
Zr415       O430   2.333       .  S
Zr416       O420   2.343       .  S
Zr416       O430   2.343       .  S
Zr417       O419   2.345       .  S
Zr417       O432   2.338       .  S
Zr418       O419   2.345       .  S
Zr418       O420   2.347       .  S
Zr418       O432   2.325       .  S
Zr418       O430   2.337       .  S
C422        C443   1.462       .  S
C428        C435   1.468       .  S
H429        O430   0.965       .  S
H431        O432   0.964       .  S
C433        N434   1.345       .  A
C433        N438   1.364       .  A
C433        C511   1.463       .  S
N434        C435   1.349       .  A
C435        N436   1.367       .  A
N436        C437   1.369       .  A
C437        N438   1.365       .  A
C439        N440   1.358       .  A
C439        N444   1.356       .  A
C439        C745   1.485       .  S
N440        C441   1.362       .  A
C441        N442   1.367       .  A
C441        C514   1.469       .  S
N442        C443   1.367       .  A
C443        N444   1.351       .  A
C445        N446   1.367       .  A
C445        N450   1.346       .  A
C445        C517   1.471       .  S
N446        C447   1.366       .  A
C447        N448   1.369       .  A
C447        C591   1.497       .  S
N448        C449   1.366       .  A
C449        N450   1.351       .  A
C451        N452   1.358       .  A
C451        N456   1.353       .  A
C451        C765   1.482       .  S
N452        C453   1.359       .  A
C453        N454   1.369       .  A
C453        C512   1.466       .  S
N454        C455   1.367       .  A
C455        N456   1.351       .  A
C457        N458   1.364       .  A
C457        N462   1.353       .  A
C457        C658   1.467       .  S
N458        C459   1.366       .  A
C459        N460   1.367       .  A
N460        C461   1.369       .  A
C461        N462   1.346       .  A
C461        C513   1.476       .  S
C463        N464   1.364       .  A
C463        N468   1.365       .  A
C463        C794   1.481   1_655  S
N464        C465   1.354       .  A
C465        N466   1.361       .  A
C465        C627   1.477       .  S
N466        C467   1.357       .  A
C467        N468   1.357       .  A
C467        C482   1.478       .  S
O469       Zr505   2.435       .  S
O469        C480   1.292       .  A
O470       Zr504   2.453       .  S
O470        C481   1.295       .  A
O471       Zr477   2.463       .  S
O471        C482   1.296       .  A
O472       Zr477   2.449       .  S
O472        C483   1.295       .  A
O473       Zr507   2.415       .  S
O473        C483   1.286       .  A
O474       Zr506   2.436       .  S
O474        C482   1.292       .  A
O475       Zr477   2.410       .  S
O475        C481   1.286       .  A
O476       Zr477   2.397       .  S
O476        C480   1.284       .  A
Zr477       O478   2.327       .  S
Zr477       O479   2.338       .  S
Zr477       O487   2.339       .  S
Zr477       O485   2.335       .  S
O478       Zr504   2.335       .  S
O478       Zr507   2.327       .  S
O479       Zr505   2.359       .  S
O479       Zr506   2.332       .  S
H484        O485   0.965       .  S
O485       Zr504   2.345       .  S
O485       Zr506   2.336       .  S
H486        O487   0.965       .  S
O487       Zr505   2.340       .  S
O487       Zr507   2.321       .  S
O488       Zr504   2.473       .  S
O488        C511   1.299       .  A
O489       Zr505   2.521       .  S
O489        C512   1.306       .  A
O490       Zr506   2.515       .  S
O490        C513   1.308       .  A
O491       Zr507   2.513       .  S
O491        C514   1.305       .  A
O492       Zr507   2.487       .  S
O492        C515   1.303       .  A
O493       Zr506   2.525       .  S
O493        C516   1.309       .  A
O494       Zr508   2.504       .  S
O494        C517   1.306       .  A
O495       Zr508   2.519       .  S
O495        C518   1.307       .  A
O496       Zr506   2.385       .  S
O496        C517   1.282       .  A
O497       Zr507   2.366       .  S
O497        C518   1.278       .  A
O498       Zr504   2.381       .  S
O498        C513   1.280       .  A
O499       Zr505   2.351       .  S
O499        C516   1.273       .  A
O500       Zr505   2.409       .  S
O500        C515   1.283       .  A
O501       Zr504   2.377       .  S
O501        C514   1.280       .  A
O502       Zr508   2.386       .  S
O502        C511   1.280       .  A
O503       Zr508   2.360       .  S
O503        C512   1.276       .  A
Zr504       O510   2.321       .  S
Zr504       O522   2.324       .  S
Zr505       O509   2.319       .  S
Zr505       O520   2.337       .  S
Zr506       O510   2.352       .  S
Zr506       O520   2.365       .  S
Zr507       O509   2.349       .  S
Zr507       O522   2.361       .  S
Zr508       O509   2.347       .  S
Zr508       O510   2.331       .  S
Zr508       O522   2.347       .  S
Zr508       O520   2.341       .  S
H519        O520   0.966       .  S
H521        O522   0.966       .  S
C523        N524   1.347       .  A
C523        N528   1.368       .  A
C523        C716   1.478       .  S
N524        C525   1.352       .  A
C525        N526   1.365       .  A
C525        C583   1.472       .  S
N526        C527   1.368       .  A
C527        N528   1.369       .  A
C529        N530   1.352       .  A
C529        N534   1.358       .  A
C529        C725   1.479       .  S
N530        C531   1.350       .  A
C531        N532   1.367       .  A
C531        C578   1.459       .  S
N532        C533   1.368       .  A
C533        N534   1.360       .  A
C533        C710   1.469       .  S
O535       Zr571   2.500       .  S
O535        C546   1.306       .  A
O536       Zr570   2.513       .  S
O536        C547   1.303       .  A
O537       Zr543   2.526       .  S
O537        C548   1.308       .  A
O538       Zr543   2.509       .  S
O538        C549   1.308       .  A
O539       Zr573   2.400       .  S
O539        C549   1.284       .  A
O540       Zr572   2.356       .  S
O540        C548   1.276       .  A
O541       Zr543   2.451       .  S
O541        C547   1.296       .  A
O542       Zr543   2.436       .  S
O542        C546   1.290       .  A
Zr543       O544   2.349       .  S
Zr543       O545   2.360       .  S
Zr543       O553   2.359       .  S
Zr543       O551   2.347       .  S
O544       Zr570   2.341       .  S
O544       Zr573   2.360       .  S
O545       Zr571   2.350       .  S
O545       Zr572   2.357       .  S
H550        O551   0.966       .  S
O551       Zr570   2.353       .  S
O551       Zr572   2.375       .  S
H552        O553   0.965       .  S
O553       Zr571   2.335       .  S
O553       Zr573   2.337       .  S
O554       Zr570   2.476       .  S
O554        C577   1.301       .  A
O555       Zr571   2.498       .  S
O555        C578   1.303       .  A
O556       Zr572   2.470       .  S
O556        C579   1.300       .  A
O557       Zr573   2.452       .  S
O557        C580   1.294       .  A
O558       Zr573   2.470       .  S
O558        C581   1.299       .  A
O559       Zr572   2.545       .  S
O559        C582   1.311       .  A
O560       Zr574   2.431       .  S
O560        C583   1.291       .  A
O561       Zr574   2.450       .  S
O561        C584   1.293       .  A
O562       Zr572   2.442       .  S
O562        C583   1.289       .  A
O563       Zr573   2.431       .  S
O563        C584   1.290       .  A
O564       Zr570   2.407       .  S
O564        C579   1.285       .  A
O565       Zr571   2.399       .  S
O565        C582   1.287       .  A
O566       Zr571   2.439       .  S
O566        C581   1.290       .  A
O567       Zr570   2.440       .  S
O567        C580   1.293       .  A
O568       Zr574   2.415       .  S
O568        C577   1.285       .  A
O569       Zr574   2.388       .  S
O569        C578   1.279       .  A
Zr570       O576   2.357       .  S
Zr570       O588   2.348       .  S
Zr571       O575   2.341       .  S
Zr571       O586   2.360       .  S
Zr572       O576   2.335       .  S
Zr572       O586   2.326       .  S
Zr573       O575   2.325       .  S
Zr573       O588   2.340       .  S
Zr574       O575   2.346       .  S
Zr574       O576   2.321       .  S
Zr574       O588   2.341       .  S
Zr574       O586   2.343       .  S
C577        C605   1.475       .  S
C580        C611   1.473       .  S
H585        O586   0.966       .  S
H587        O588   0.966       .  S
C589        N590   1.365       .  A
C589        N594   1.345       .  A
N590        C591   1.364       .  A
C591        N592   1.369       .  A
N592        C593   1.369       .  A
C593        N594   1.349       .  A
C593        C662   1.469       .  S
C595        N596   1.366       .  A
C595        N600   1.361       .  A
C595        C734   1.476       .  S
N596        C597   1.356       .  A
C597        N598   1.359       .  A
N598        C599   1.355       .  A
C599        N600   1.355       .  A
C599        C656   1.470       .  S
C601        N602   1.363       .  A
C601        N606   1.347       .  A
C601        C655   1.460       .  S
N602        C603   1.362       .  A
C603        N604   1.372       .  A
N604        C605   1.370       .  A
C605        N606   1.347       .  A
C607        N608   1.368       .  A
C607        N612   1.362       .  A
C607        C754   1.481   1_545  S
N608        C609   1.359       .  A
C609        N610   1.359       .  A
C609        C657   1.478       .  S
N610        C611   1.354       .  A
C611        N612   1.354       .  A
O613       Zr649   2.431       .  S
O613        C624   1.291       .  A
O614       Zr648   2.506       .  S
O614        C625   1.304       .  A
O615       Zr621   2.481       .  S
O615        C626   1.301       .  A
O616       Zr621   2.504       .  S
O616        C627   1.304       .  A
O617       Zr651   2.388       .  S
O617        C627   1.283       .  A
O618       Zr650   2.385       .  S
O618        C626   1.281       .  A
O619       Zr621   2.360       .  S
O619        C625   1.278       .  A
O620       Zr621   2.405       .  S
O620        C624   1.285       .  A
Zr621       O622   2.344       .  S
Zr621       O623   2.325       .  S
Zr621       O631   2.324       .  S
Zr621       O629   2.345       .  S
O622       Zr648   2.329       .  S
O622       Zr651   2.329       .  S
O623       Zr649   2.337       .  S
O623       Zr650   2.336       .  S
H628        O629   0.966       .  S
O629       Zr648   2.349       .  S
O629       Zr650   2.344       .  S
H630        O631   0.966       .  S
O631       Zr649   2.327       .  S
O631       Zr651   2.330       .  S
O632       Zr648   2.469       .  S
O632        C655   1.300       .  A
O633       Zr649   2.450       .  S
O633        C656   1.294       .  A
O634       Zr650   2.495       .  S
O634        C657   1.302       .  A
O635       Zr651   2.432       .  S
O635        C658   1.291       .  A
O636       Zr651   2.429       .  S
O636        C659   1.291       .  A
O637       Zr650   2.465       .  S
O637        C660   1.298       .  A
O638       Zr652   2.505       .  S
O638        C661   1.303       .  A
O639       Zr652   2.461       .  S
O639        C662   1.298       .  A
O640       Zr650   2.381       .  S
O640        C661   1.280       .  A
O641       Zr651   2.415       .  S
O641        C662   1.286       .  A
O642       Zr648   2.401       .  S
O642        C657   1.286       .  A
O643       Zr649   2.377       .  S
O643        C660   1.279       .  A
O644       Zr649   2.413       .  S
O644        C659   1.285       .  A
O645       Zr648   2.435       .  S
O645        C658   1.290       .  A
O646       Zr652   2.401       .  S
O646        C655   1.285       .  A
O647       Zr652   2.430       .  S
O647        C656   1.291       .  A
Zr648       O654   2.354       .  S
Zr648       O666   2.341       .  S
Zr649       O653   2.331       .  S
Zr649       O664   2.349       .  S
Zr650       O654   2.333       .  S
Zr650       O664   2.343       .  S
Zr651       O653   2.337       .  S
Zr651       O666   2.318       .  S
Zr652       O653   2.343       .  S
Zr652       O654   2.344       .  S
Zr652       O666   2.352       .  S
Zr652       O664   2.329       .  S
H663        O664   0.966       .  S
H665        O666   0.965       .  S
O667       Zr703   2.425       .  S
O667        C678   1.290       .  A
O668       Zr702   2.444       .  S
O668        C679   1.295       .  A
O669       Zr675   2.433       .  S
O669        C680   1.291       .  A
O670       Zr675   2.464       .  S
O670        C681   1.296       .  A
O671       Zr705   2.426       .  S
O671        C681   1.290       .  A
O672       Zr704   2.429       .  S
O672        C680   1.289       .  A
O673       Zr675   2.387       .  S
O673        C679   1.281       .  A
O674       Zr675   2.391       .  S
O674        C678   1.283       .  A
Zr675       O676   2.337       .  S
Zr675       O677   2.334       .  S
Zr675       O685   2.329       .  S
Zr675       O683   2.332       .  S
O676       Zr702   2.341       .  S
O676       Zr705   2.331       .  S
O677       Zr703   2.339       .  S
O677       Zr704   2.320       .  S
H682        O683   0.965       .  S
O683       Zr702   2.337       .  S
O683       Zr704   2.320       .  S
H684        O685   0.965       .  S
O685       Zr703   2.363       .  S
O685       Zr705   2.335       .  S
O686       Zr702   2.454       .  S
O686        C709   1.295       .  A
O687       Zr703   2.522       .  S
O687        C710   1.307       .  A
O688       Zr704   2.507       .  S
O688        C711   1.304       .  A
O689       Zr705   2.499       .  S
O689        C712   1.305       .  A
O690       Zr705   2.495       .  S
O690        C713   1.303       .  A
O691       Zr704   2.466       .  S
O691        C714   1.299       .  A
O692       Zr706   2.528       .  S
O692        C715   1.309       .  A
O693       Zr706   2.506       .  S
O693        C716   1.307       .  A
O694       Zr704   2.362       .  S
O694        C715   1.276       .  A
O695       Zr705   2.402       .  S
O695        C716   1.285       .  A
O696       Zr702   2.372       .  S
O696        C711   1.278       .  A
O697       Zr703   2.428       .  S
O697        C714   1.287       .  A
O698       Zr703   2.385       .  S
O698        C713   1.280       .  A
O699       Zr702   2.392       .  S
O699        C712   1.282       .  A
O700       Zr706   2.398       .  S
O700        C709   1.283       .  A
O701       Zr706   2.368       .  S
O701        C710   1.278       .  A
Zr702       O708   2.324       .  S
Zr702       O720   2.313       .  S
Zr703       O707   2.343       .  S
Zr703       O718   2.321       .  S
Zr704       O708   2.355       .  S
Zr704       O718   2.352       .  S
Zr705       O707   2.367       .  S
Zr705       O720   2.344       .  S
Zr706       O707   2.350       .  S
Zr706       O708   2.340       .  S
Zr706       O720   2.332       .  S
Zr706       O718   2.348       .  S
H717        O718   0.965       .  S
H719        O720   0.965       .  S
C721        C722   1.406       .  A
C721        C726   1.400       .  A
C721        H731   1.083       .  S
C722        C727   1.509       .  S
C722        C723   1.412       .  A
C723        C724   1.403       .  A
C723        H728   1.081       .  S
C724        C725   1.408   1_565  A
C724        H729   1.083       .  S
C725        C726   1.412   1_545  A
C726        H730   1.083   1_565  S
C727        C732   1.418   1_565  A
C727        C736   1.410       .  A
C732        C733   1.389       .  A
C732        H737   1.081       .  S
C733        C734   1.396   1_554  A
C733        H738   1.083       .  S
C734        C735   1.408       .  A
C735        C736   1.399   1_546  A
C735        H739   1.083       .  S
C736        H740   1.082       .  S
C741        C742   1.409       .  A
C741        C746   1.402   1_455  A
C741        H751   1.082       .  S
C742        C747   1.510   1_455  S
C742        C743   1.413       .  A
C743        C744   1.403       .  A
C743        H748   1.082       .  S
C744        C745   1.407   1_455  A
C744        H749   1.083       .  S
C745        C746   1.412       .  A
C746        H750   1.083       .  S
C747        C752   1.418       .  A
C747        C756   1.410       .  A
C752        C753   1.392       .  A
C752        H757   1.081       .  S
C753        C754   1.398       .  A
C753        H758   1.083       .  S
C754        C755   1.408       .  A
C755        C756   1.398       .  A
C755        H759   1.083       .  S
C756        H760   1.082       .  S
C761        C762   1.413       .  A
C761        C766   1.402       .  A
C761        H771   1.081   1_565  S
C762        C767   1.506       .  S
C762        C763   1.408       .  A
C763        C764   1.400       .  A
C763        H768   1.082       .  S
C764        C765   1.411       .  A
C764        H769   1.083       .  S
C765        C766   1.406       .  A
C766        H770   1.083       .  S
C767        C772   1.408       .  A
C767        C776   1.419       .  A
C772        C773   1.397   1_556  A
C772        H777   1.082       .  S
C773        C774   1.408       .  A
C773        H778   1.083       .  S
C774        C775   1.396   1_554  A
C775        C776   1.392       .  A
C775        H779   1.083       .  S
C776        H780   1.081       .  S
C781        C782   1.408       .  A
C781        C786   1.402   1_554  A
C781        H791   1.082       .  S
C782        C787   1.514   1_554  S
C782        C783   1.410       .  A
C783        C784   1.403       .  A
C783        H788   1.083       .  S
C784        C785   1.410   1_554  A
C784        H789   1.083   1_554  S
C785        C786   1.411       .  A
C786        H790   1.083       .  S
C787        C792   1.415       .  A
C787        C796   1.416       .  A
C792        C793   1.397       .  A
C792        H797   1.081       .  S
C793        C794   1.404       .  A
C793        H798   1.083       .  S
C794        C795   1.402       .  A
C795        C796   1.393       .  A
C795        H799   1.083       .  S
C796        H800   1.081       .  S
C801        C802   1.412       .  A
C801        C806   1.400   1_545  A
C801        H811   1.082       .  S
C802        C807   1.512   1_455  S
C802        C803   1.418       .  A
C803        C804   1.391   1_545  A
C803        H808   1.081       .  S
C804        C805   1.400       .  A
C804        H809   1.083       .  S
C805        C806   1.406       .  A
C806        H810   1.083       .  S
C807        C812   1.412       .  A
C807        C816   1.409   1_655  A
C812        C813   1.405   1_655  A
C812        H817   1.083       .  S
C813        C814   1.408       .  A
C813        H818   1.083       .  S
C814        C815   1.412       .  A
C815        C816   1.402       .  A
C815        H819   1.083       .  S
C816        H820   1.082   1_455  S
C821        C822   1.412       .  A
C821        C826   1.404   1_556  A
C821        H831   1.083       .  S
C822        C827   1.512   1_556  S
C822        C823   1.408       .  A
C823        C824   1.401   1_556  A
C823        H828   1.082       .  S
C824        C825   1.412       .  A
C824        H829   1.081       .  S
C825        C826   1.408       .  A
C826        H830   1.083       .  S
C827        C832   1.416       .  A
C827        C836   1.414       .  A
C832        C833   1.389   1_655  A
C832        H837   1.081       .  S
C833        C834   1.401       .  A
C833        H838   1.083       .  S
C834        C835   1.405       .  A
C835        C836   1.399   1_455  A
C835        H839   1.083       .  S
C836        H840   1.081       .  S
C841        C842   1.414       .  A
C841        C846   1.399   1_655  A
C841        H851   1.070   1_655  S
C842        C847   1.511       .  S
C842        C843   1.409       .  A
C843        C844   1.405       .  A
C843        H848   1.082       .  S
C844        C845   1.417       .  A
C844        H849   1.084       .  S
C845        C846   1.397   1_655  A
C846        H850   1.083       .  S
C847        C852   1.404       .  A
C847        C856   1.419   1_655  A
C852        C853   1.402       .  A
C852        H857   1.083       .  S
C853        C854   1.415       .  A
C853        H858   1.083       .  S
C854        C855   1.394   1_655  A
C855        C856   1.400       .  A
C855        H859   1.083       .  S
C856        H860   1.078       .  S
C861        C862   1.410       .  A
C861        C866   1.394       .  A
C861        H871   1.071       .  S
C862        C867   1.479       .  S
C862        C863   1.405       .  A
C863        C864   1.403       .  A
C863        H868   1.081       .  S
C864        C865   1.413       .  A
C864        H869   1.083       .  S
C865        C866   1.395       .  A
C866        H870   1.084   1_455  S
C867        C872   1.402       .  A
C867        C876   1.392       .  A
C872        C873   1.401       .  A
C872        H877   1.075       .  S
C873        C874   1.402       .  A
C873        H878   1.083       .  S
C874        C875   1.414       .  A
C875        C876   1.399       .  A
C875        H879   1.070       .  S
C876        H880   1.082       .  S
C881        C882   1.409       .  A
C881        C886   1.401       .  A
C881        H891   1.082       .  S
C882        C887   1.505       .  S
C882        C883   1.417       .  A
C883        C884   1.392       .  A
C883        H888   1.081   1_565  S
C884        C885   1.398       .  A
C884        H889   1.083   1_565  S
C885        C886   1.410       .  A
C886        H890   1.083       .  S
C887        C892   1.417       .  A
C887        C896   1.412       .  A
C892        C893   1.402       .  A
C892        H897   1.077   1_565  S
C893        C894   1.401       .  A
C893        H898   1.083   1_565  S
C894        C895   1.410       .  A
C895        C896   1.403       .  A
C895        H899   1.083       .  S
C896        H900   1.082       .  S
C901        C902   1.416   1_565  A
C901        C906   1.388       .  A
C901        H911   1.081       .  S
C902        C907   1.503       .  S
C902        C903   1.409       .  A
C903        C904   1.400       .  A
C903        H908   1.082       .  S
C904        C905   1.408       .  A
C904        H909   1.083       .  S
C905        C906   1.397   1_545  A
C906        H910   1.083       .  S
C907        C912   1.415   1_545  A
C907        C916   1.409       .  A
C912        C913   1.400       .  A
C912        H917   1.078       .  S
C913        C914   1.401       .  A
C913        H918   1.083       .  S
C914        C915   1.411   1_565  A
C915        C916   1.401       .  A
C915        H919   1.083       .  S
C916        H920   1.083       .  S
C921        C922   1.412       .  A
C921        C926   1.392   1_556  A
C921        H931   1.073       .  S
C922        C927   1.478       .  S
C922        C923   1.406       .  A
C923        C924   1.403       .  A
C923        H928   1.083       .  S
C924        C925   1.411       .  A
C924        H929   1.081       .  S
C925        C926   1.391   1_556  A
C926        H930   1.084       .  S
C927        C932   1.404       .  A
C927        C936   1.396       .  A
C932        C933   1.400       .  A
C932        H937   1.079       .  S
C933        C934   1.400       .  A
C933        H938   1.083       .  S
C934        C935   1.413       .  A
C935        C936   1.397       .  A
C935        H939   1.077       .  S
C936        H940   1.082       .  S
C941        C942   1.405       .  A
C941        C946   1.405       .  A
C941        H951   1.080       .  S
C942        C947   1.502       .  S
C942        C943   1.406       .  A
C943        C944   1.405       .  A
C943        H948   1.063       .  S
C944        C945   1.400       .  A
C944        H949   1.082   1_554  S
C945        C946   1.419       .  A
C946        H950   1.082       .  S
C947        C952   1.419       .  A
C947        C956   1.401       .  A
C952        C953   1.397       .  A
C952        H957   1.078   1_554  S
C953        C954   1.394       .  A
C953        H958   1.083   1_554  S
C954        C955   1.417       .  A
C955        C956   1.401       .  A
C955        H959   1.083       .  S
C956        H960   1.083       .  S
