geometry optimzed in LAMMPS
_audit_creation_date              2020-11-30 
_audit_creation_method            'lammps2cif' 
_symmetry_space_group_name_H-M    'P1' 
_symmetry_Int_Tables_number       1 
_symmetry_cell_setting            triclinic 
loop_ 
_symmetry_equiv_pos_as_xyz 
  x,y,z 
_cell_length_a                    35.16879756 
_cell_length_b                    35.20890671625763 
_cell_length_c                    35.23555836189432 
_cell_angle_alpha                 89.79998756348948 
_cell_angle_beta                  89.7407948891111 
_cell_angle_gamma                 89.86620539236677 
loop_ 
_atom_site_label 
_atom_site_type_symbol 
_atom_site_fract_x 
_atom_site_fract_y 
_atom_site_fract_z 
_atom_site_charge 
Zn1        Zn  0.53305627  0.47271402  0.03511157     1.49700
Zn2        Zn  0.53092350  0.53696078  0.97132237     1.49400
Zn3        Zn  0.46783790  0.47271491  0.97397684     1.49100
Zn4        Zn  0.46843564  0.53581944  0.03710005     1.49500
O5          O  0.50020275  0.50475003  0.00435534    -1.83900
O6          O  0.58734728  0.48334893  0.02450777    -0.74500
O7          O  0.52111259  0.52539716  0.91638908    -0.74300
O8          O  0.47929296  0.41815274  0.98216910    -0.73800
O9          O  0.58654443  0.52884458  0.98100549    -0.74500
O10         O  0.52536068  0.41760730  0.02476666    -0.74100
O11         O  0.47548560  0.48206584  0.91905958    -0.74700
O12         O  0.41301832  0.52625043  0.02889372    -0.74100
O13         O  0.51915830  0.59203524  0.98008670    -0.74800
O14         O  0.41306328  0.48134420  0.98506009    -0.74200
O15         O  0.47705410  0.59069811  0.02721435    -0.74700
O16         O  0.47968927  0.52592098  0.09155353    -0.74600
O17         O  0.52437132  0.48135331  0.09026215    -0.74400
C18         C  0.60468146  0.50615034  0.00246564     0.77400
C19         C  0.49772688  0.50325114  0.90017993     0.77900
C20         C  0.50304958  0.40027143  0.00260633     0.76900
C21         C  0.39535241  0.50361530  0.00728818     0.77200
C22         C  0.49757106  0.60891538  0.00374095     0.78400
C23         C  0.50254618  0.50360459  0.10844866     0.77400
Zn24       Zn  0.53027147  0.03187327  0.52890102     1.49700
Zn25       Zn  0.46761975  0.96669747  0.52922203     1.49400
Zn26       Zn  0.46800877  0.02904759  0.46380036     1.49100
Zn27       Zn  0.53340790  0.96672336  0.46674098     1.49500
O28         O  0.49982676  0.99856362  0.49724571    -1.83900
O29         O  0.51964732  0.02283208  0.58402451    -0.74500
O30         O  0.41239426  0.97531680  0.51837986    -0.74300
O31         O  0.47681322  0.08459731  0.47092751    -0.73800
O32         O  0.47560061  0.97769075  0.58434486    -0.74500
O33         O  0.51915348  0.08645464  0.51740096    -0.74100
O34         O  0.41287349  0.01924495  0.47316471    -0.74700
O35         O  0.52536267  0.97515777  0.41118043    -0.74100
O36         O  0.47887969  0.91158038  0.52060050    -0.74800
O37         O  0.47872189  0.01770625  0.40946872    -0.74200
O38         O  0.52507204  0.91147351  0.47747156    -0.74700
O39         O  0.58776761  0.97823243  0.47692817    -0.74600
O40         O  0.58609992  0.02369121  0.52034220    -0.74400
C41         C  0.49713023  0.00070119  0.60169988     0.77400
C42         C  0.39496650  0.99707593  0.49535438     0.77900
C43         C  0.49786686  0.10309625  0.49341002     0.76900
C44         C  0.50228755  0.99600194  0.39281406     0.77200
C45         C  0.50206949  0.89390446  0.49921223     0.78400
C46         C  0.60452625  0.00157255  0.49847527     0.77400
Zn47       Zn  0.03266179  0.53043500  0.53031063     1.49700
Zn48       Zn  0.03302746  0.46517436  0.46920965     1.49400
Zn49       Zn  0.96829600  0.46718994  0.53248588     1.49100
Zn50       Zn  0.96959389  0.52917932  0.46621987     1.49500
O51         O  0.00073725  0.49796674  0.49962911    -1.83900
O52         O  0.08764342  0.51874383  0.52317730    -0.74500
O53         O  0.02323742  0.41117920  0.48102830    -0.74300
O54         O  0.97683187  0.47951127  0.58732728    -0.73800
O55         O  0.08813461  0.47397537  0.47911826    -0.74500
O56         O  0.02166392  0.52379660  0.58542362    -0.74100
O57         O  0.97818961  0.41135876  0.52522774    -0.74700
O58         O  0.91432527  0.52101318  0.47634655    -0.74100
O59         O  0.02330253  0.47156559  0.41393320    -0.74800
O60         O  0.91345457  0.47709608  0.52153375    -0.74200
O61         O  0.97856011  0.51592965  0.41191365    -0.74700
O62         O  0.98023846  0.58468362  0.47297395    -0.74600
O63         O  0.02446558  0.58501145  0.51754074    -0.74400
C64         C  0.10547580  0.49562467  0.50202744     0.77400
C65         C  0.00128907  0.39367330  0.50366627     0.77900
C66         C  0.99886592  0.50266963  0.60387415     0.76900
C67         C  0.89619089  0.49943073  0.49893088     0.77200
C68         C  0.00038028  0.49240769  0.39537636     0.78400
C69         C  0.00277923  0.60253924  0.49456737     0.77400
Zn70       Zn  0.02868995  0.03125393  0.96672983     1.49700
Zn71       Zn  0.96783299  0.02651637  0.03268584     1.49400
Zn72       Zn  0.96735692  0.96556172  0.96627333     1.49100
Zn73       Zn  0.03436906  0.96573966  0.02812713     1.49500
O74         O  0.99945197  0.99699064  0.99843797    -1.83900
O75         O  0.01866802  0.08512256  0.97986936    -0.74500
O76         O  0.91274862  0.01739345  0.02350878    -0.74300
O77         O  0.97580470  0.97701106  0.91070007    -0.73800
O78         O  0.97727755  0.08238193  0.02726287    -0.74500
O79         O  0.01684965  0.02475289  0.91229950    -0.74100
O80         O  0.91202145  0.97436902  0.97768719    -0.74700
O81         O  0.02521217  0.91116662  0.01787245    -0.74100
O82         O  0.97791644  0.01249895  0.08633995    -0.74800
O83         O  0.97846421  0.91042069  0.97572225    -0.74200
O84         O  0.02650849  0.97227855  0.08436325    -0.74700
O85         O  0.08890097  0.97675298  0.01478685    -0.74600
O86         O  0.08430117  0.02205379  0.97133195    -0.74400
C87         C  0.99784031  0.10146366  0.00447224     0.77400
C88         C  0.89474482  0.99570389  0.00124809     0.77900
C89         C  0.99639493  0.00166649  0.89397000     0.76900
C90         C  0.00224126  0.89322768  0.99689577     0.77200
C91         C  0.00200238  0.99130595  0.10294116     0.78400
C92         C  0.10428262  0.99982525  0.99144983     0.77400
C93         C  0.76905116  0.49947054  0.00618905     0.80500
N94         N  0.78895461  0.47506227  0.02803820    -0.77800
C95         C  0.82740271  0.47435705  0.02685169     0.82900
N96         N  0.84675021  0.49797388  0.00284418    -0.77800
C97         C  0.82673270  0.52234257  0.98032940     0.83000
N98         N  0.78823276  0.52286173  0.98241239    -0.79500
C99         C  0.23144554  0.50130769  0.99949732     0.80500
N100        N  0.21209159  0.47667131  0.97774069    -0.77800
C101        C  0.17354375  0.47608957  0.97753189     0.82900
N102        N  0.15366882  0.50064407  0.00044039    -0.77800
C103        C  0.17331875  0.52540803  0.02305284     0.83000
N104        N  0.21187080  0.52532366  0.02214627    -0.79500
C105        C  0.00599122  0.49033386  0.23265637     0.80500
N106        N  0.02799924  0.51608377  0.21457135    -0.77800
C107        C  0.02703354  0.51969083  0.17626954     0.82900
N108        N  0.00306278  0.49721145  0.15570617    -0.77800
C109        C  0.98056665  0.47144042  0.17428383     0.83000
N110        N  0.98214225  0.46838677  0.21248265    -0.79500
C111        C  0.00252989  0.26579325  0.00061221     0.80500
N112        N  0.02359538  0.28530730  0.97502303    -0.77800
C113        C  0.02338159  0.32384326  0.97398645     0.82900
N114        N  0.00067771  0.34343197  0.99868396    -0.77800
C115        C  0.97892389  0.32375475  0.02423855     0.83000
N116        N  0.98017214  0.28533957  0.02505664    -0.79500
C117        C  0.00446426  0.50440509  0.76730874     0.80500
N118        N  0.97967853  0.52623238  0.78694126    -0.77800
C119        C  0.97805010  0.52488449  0.82541422     0.82900
N120        N  0.00169939  0.50091459  0.84482134    -0.77800
C121        C  0.02658644  0.47856216  0.82499671     0.83000
N122        N  0.02744322  0.48046396  0.78652039    -0.79500
Zn123      Zn  0.08748977  0.41262974  0.91233548     1.49700
Zn124      Zn  0.11437215  0.39281625  0.82581186     1.49400
Zn125      Zn  0.17504629  0.38798806  0.89118118     1.49100
Zn126      Zn  0.10925647  0.32666617  0.88552087     1.49500
O127        O  0.12133164  0.38039119  0.87921873    -1.83900
O128        O  0.05359850  0.44717292  0.87931043    -0.74500
O129        O  0.16277914  0.40999504  0.80005530    -0.74300
O130        O  0.17802643  0.42750496  0.93220762    -0.73800
O131        O  0.07488293  0.43300582  0.82138366    -0.74500
O132        O  0.11952272  0.44698444  0.94730687    -0.74100
O133        O  0.20571064  0.40614954  0.84532885    -0.74700
O134        O  0.15513941  0.29660862  0.90196517    -0.74100
O135        O  0.09786472  0.34779843  0.79492248    -0.74800
O136        O  0.20130823  0.33862291  0.90691998    -0.74200
O137        O  0.09312829  0.30124900  0.83651011    -0.74700
O138        O  0.06866077  0.32101039  0.92501544    -0.74600
O139        O  0.05298191  0.37871898  0.94574373    -0.74400
C140        C  0.05293524  0.45168347  0.84332971     0.77400
C141        C  0.19707544  0.41278773  0.81081522     0.77900
C142        C  0.15556303  0.44876425  0.95131253     0.76900
C143        C  0.18983500  0.30427499  0.90811148     0.77200
C144        C  0.09148948  0.31309852  0.80234072     0.78400
C145        C  0.04932305  0.34261893  0.94675444     0.77400
C146        C  0.99585138  0.73006210  0.00267025     0.80500
N147        N  0.97345336  0.71014433  0.97917651    -0.77800
C148        C  0.97404314  0.67166869  0.97894588     0.82900
N149        N  0.99815077  0.65250133  0.00269270    -0.77800
C150        C  0.02124687  0.67281094  0.02630361     0.83000
N151        N  0.01985700  0.71128370  0.02584369    -0.79500
Zn152      Zn  0.82628837  0.60748035  0.89259805     1.49700
Zn153      Zn  0.91304804  0.58446815  0.91420928     1.49400
Zn154      Zn  0.88806841  0.60870032  0.82794717     1.49100
Zn155      Zn  0.88816452  0.67109705  0.89186021     1.49500
O156        O  0.87943022  0.61755797  0.88191292    -1.83900
O157        O  0.82249983  0.56898622  0.93343094    -0.74500
O158        O  0.94764220  0.55156494  0.88039046    -0.74300
O159        O  0.84075884  0.59099432  0.80039054    -0.73800
O160        O  0.88085757  0.54988272  0.94884284    -0.74500
O161        O  0.79873037  0.58841567  0.84682414    -0.74100
O162        O  0.92924799  0.57003753  0.82268251    -0.74700
O163        O  0.90619258  0.69971893  0.84529734    -0.74100
O164        O  0.94690815  0.61694374  0.94872393    -0.74800
O165        O  0.90373914  0.65654254  0.80026259    -0.74200
O166        O  0.92716075  0.67488855  0.93236567    -0.74700
O167        O  0.84024828  0.69909462  0.90778162    -0.74600
O168        O  0.79674523  0.65422536  0.90810437    -0.74400
C169        C  0.84480387  0.54828872  0.95295248     0.77400
C170        C  0.95026652  0.54991521  0.84426233     0.77900
C171        C  0.80688687  0.58508587  0.81189585     0.76900
C172        C  0.90935601  0.69062966  0.81045797     0.77200
C173        C  0.94816964  0.65298650  0.95215472     0.78400
C174        C  0.80581654  0.68897114  0.91195421     0.77400
Zn175      Zn  0.87158760  0.43141825  0.13299801     1.49700
Zn176      Zn  0.87154597  0.36687424  0.06679855     1.49400
Zn177      Zn  0.93571531  0.36526087  0.13227160     1.49100
Zn178      Zn  0.84885201  0.34638724  0.15167882     1.49500
O179        O  0.88221655  0.37778065  0.12068892    -1.83900
O180        O  0.85269658  0.45831892  0.08622045    -0.74500
O181        O  0.91942160  0.35047203  0.03938644    -0.74300
O182        O  0.96368890  0.41208448  0.14938975    -0.73800
O183        O  0.85239167  0.41414345  0.04094011    -0.74500
O184        O  0.91988237  0.45792179  0.14969529    -0.74100
O185        O  0.96261779  0.34578016  0.08524854    -0.74700
O186        O  0.87877016  0.31277353  0.18558308    -0.74100
O187        O  0.83166411  0.32434032  0.06052300    -0.74800
O188        O  0.93984467  0.32490531  0.17455492    -0.74200
O189        O  0.81657578  0.31208873  0.12060174    -0.74700
O190        O  0.81482692  0.37669201  0.18554652    -0.74600
O191        O  0.83085855  0.43687145  0.17549203    -0.74400
C192        C  0.84653721  0.44796376  0.05221727     0.77400
C193        C  0.95281682  0.34239053  0.05066235     0.77900
C194        C  0.95383679  0.44643104  0.15500745     0.76900
C195        C  0.91372580  0.30689802  0.19223514     0.77200
C196        C  0.81291786  0.30560884  0.08539049     0.78400
C197        C  0.81120766  0.41177065  0.19298688     0.77400
Zn198      Zn  0.10754031  0.67489916  0.11331442     1.49700
Zn199      Zn  0.08657497  0.58735098  0.08953201     1.49400
Zn200      Zn  0.17227837  0.61286275  0.11020622     1.49100
Zn201      Zn  0.11014324  0.61145622  0.17634240     1.49500
O202        O  0.11877335  0.62126575  0.12223402    -1.83900
O203        O  0.06846025  0.67781705  0.07250981    -0.74500
O204        O  0.11899938  0.55355607  0.05418626    -0.74300
O205        O  0.19936181  0.66168647  0.09508401    -0.73800
O206        O  0.05122942  0.61922601  0.05602978    -0.74500
O207        O  0.15446772  0.70532928  0.09885327    -0.74100
O208        O  0.17701973  0.57353981  0.06902639    -0.74700
O209        O  0.15933855  0.59697647  0.20302730    -0.74100
O210        O  0.05407288  0.55217969  0.12276228    -0.74800
O211        O  0.20137424  0.59521580  0.15635263    -0.74200
O212        O  0.07192900  0.56893647  0.18104413    -0.74700
O213        O  0.09128822  0.65848505  0.20488504    -0.74600
O214        O  0.08776531  0.70216711  0.16006724    -0.74400
C215        C  0.04831503  0.65521459  0.05280202     0.77400
C216        C  0.15500923  0.55220331  0.04984968     0.77900
C217        C  0.18913875  0.69644570  0.09354316     0.76900
C218        C  0.19347241  0.59239335  0.19148486     0.77200
C219        C  0.05215826  0.54839905  0.15875585     0.78400
C220        C  0.08444852  0.69259557  0.19481845     0.77400
C221        C  0.49948763  0.23657890  0.99782938     0.80500
N222        N  0.47682036  0.21624864  0.97474964    -0.77800
C223        C  0.47724006  0.17784233  0.97548578     0.82900
N224        N  0.50141020  0.15904439  0.99935278    -0.77800
C225        C  0.52467987  0.17947564  0.02258281     0.83000
N226        N  0.52341596  0.21798429  0.02150613    -0.79500
C227        C  0.49208457  0.77204237  0.99737044     0.80500
N228        N  0.47067480  0.79161943  0.02251588    -0.77800
C229        C  0.47190806  0.83012865  0.02381008     0.82900
N230        N  0.49557553  0.84949043  0.99957805    -0.77800
C231        C  0.51764743  0.82946688  0.97449963     0.83000
N232        N  0.51565083  0.79108072  0.97395978    -0.79500
C233        C  0.50888877  0.99877099  0.22957997     0.80500
N234        N  0.48396758  0.97702055  0.21050689    -0.77800
C235        C  0.48064632  0.97932177  0.17228614     0.82900
N236        N  0.50299035  0.00412449  0.15234939    -0.77800
C237        C  0.52811798  0.02639952  0.17167360     0.83000
N238        N  0.53048957  0.02362890  0.21001756    -0.79500
C239        C  0.26834287  0.99774367  0.99001372     0.80500
N240        N  0.28868767  0.02177306  0.96782677    -0.77800
C241        C  0.32682702  0.02504189  0.97194973     0.82900
N242        N  0.34521053  0.00374192  0.99884291    -0.77800
C243        C  0.32465272  0.97950898  0.02144295     0.83000
N244        N  0.28646965  0.97717561  0.01687887    -0.79500
C245        C  0.73094951  0.99697781  0.99922865     0.80500
N246        N  0.71083315  0.97289487  0.97766906    -0.77800
C247        C  0.67233884  0.97375476  0.97736223     0.82900
N248        N  0.65327235  0.99924497  0.99971715    -0.77800
C249        C  0.67369805  0.02328212  0.02224334     0.83000
N250        N  0.71227813  0.02177938  0.02172155    -0.79500
Zn251      Zn  0.61204403  0.89099340  0.82574280     1.49700
Zn252      Zn  0.60545121  0.82691065  0.88819558     1.49400
Zn253      Zn  0.67151842  0.88670488  0.89163173     1.49100
Zn254      Zn  0.58517776  0.91403943  0.91185070     1.49500
O255        O  0.61817027  0.88001837  0.87962180    -1.83900
O256        O  0.59505538  0.84474547  0.79678656    -0.74500
O257        O  0.65087877  0.79606606  0.90539191    -0.74300
O258        O  0.70196026  0.90513777  0.84664123    -0.73800
O259        O  0.58811247  0.80026464  0.84034703    -0.74500
O260        O  0.66103267  0.90735705  0.79949257    -0.74100
O261        O  0.69762947  0.83756568  0.90699771    -0.74700
O262        O  0.61761621  0.94744660  0.94656573    -0.74100
O263        O  0.56462520  0.82440148  0.92761343    -0.74800
O264        O  0.67534072  0.92520514  0.93254776    -0.74200
O265        O  0.54914655  0.88297096  0.94583016    -0.74700
O266        O  0.55278515  0.94872866  0.87811192    -0.74600
O267        O  0.57271259  0.93149116  0.82050257    -0.74400
C268        C  0.58713754  0.81067724  0.80569158     0.77400
C269        C  0.68589136  0.80347057  0.91003163     0.77900
C270        C  0.69492217  0.91044027  0.81170611     0.76900
C271        C  0.65356523  0.94741767  0.95116603     0.77200
C272        C  0.54502699  0.84705507  0.94805236     0.78400
C273        C  0.55161852  0.95164782  0.84202452     0.77400
C274        C  0.50246693  0.00200211  0.76503228     0.80500
N275        N  0.52509031  0.97816932  0.78475102    -0.77800
C276        C  0.52553538  0.97832653  0.82317764     0.82900
N277        N  0.50226322  0.00265703  0.84250412    -0.77800
C278        C  0.47888856  0.02644259  0.82260676     0.83000
N279        N  0.47910508  0.02588558  0.78414638    -0.79500
Zn280      Zn  0.37096806  0.06994270  0.86497271     1.49700
Zn281      Zn  0.37055179  0.13405610  0.93099710     1.49400
Zn282      Zn  0.43815987  0.13382950  0.86762960     1.49100
Zn283      Zn  0.35389940  0.15594120  0.84404280     1.49500
O284        O  0.38368022  0.12313847  0.87732196    -1.83900
O285        O  0.35237608  0.04226894  0.91228317    -0.74500
O286        O  0.41706668  0.15376373  0.95871468    -0.74300
O287        O  0.46456767  0.08619558  0.84902158    -0.73800
O288        O  0.35260909  0.08576140  0.95808677    -0.74500
O289        O  0.41823403  0.04309696  0.84572873    -0.74100
O290        O  0.46393584  0.15088441  0.91596677    -0.74700
O291        O  0.38607100  0.19059384  0.81265193    -0.74100
O292        O  0.32761955  0.17436345  0.93444825    -0.74800
O293        O  0.44576931  0.17636612  0.82748862    -0.74200
O294        O  0.31836416  0.18831522  0.87359815    -0.74700
O295        O  0.32019424  0.12685941  0.80925376    -0.74600
O296        O  0.32854704  0.06617026  0.82434058    -0.74400
C297        C  0.34650093  0.05197722  0.94665029     0.77400
C298        C  0.45181346  0.15829972  0.94925376     0.77900
C299        C  0.45285922  0.05288432  0.84131749     0.76900
C300        C  0.42156658  0.19595547  0.80882322     0.77200
C301        C  0.31024141  0.19278123  0.90841858     0.78400
C302        C  0.31167427  0.09209746  0.80528100     0.77400
Zn303      Zn  0.41146199  0.91885196  0.08832107     1.49700
Zn304      Zn  0.38973166  0.89785625  0.17595486     1.49400
Zn305      Zn  0.32449440  0.89650277  0.11440248     1.49100
Zn306      Zn  0.38964217  0.83297479  0.11584146     1.49500
O307        O  0.37883105  0.88692305  0.12310767    -1.83900
O308        O  0.44783011  0.95260072  0.11891417    -0.74500
O309        O  0.34391528  0.91734466  0.20473636    -0.74300
O310        O  0.31976900  0.93502038  0.07157507    -0.73800
O311        O  0.43134659  0.93556599  0.17766462    -0.74500
O312        O  0.37821599  0.95254813  0.05402295    -0.74100
O313        O  0.29767589  0.91566014  0.16244858    -0.74700
O314        O  0.34240926  0.80502555  0.10059142    -0.74100
O315        O  0.40575738  0.85146961  0.20584093    -0.74800
O316        O  0.29623071  0.84749035  0.10087524    -0.74200
O317        O  0.40661199  0.80515321  0.16403118    -0.74700
O318        O  0.42842503  0.82737524  0.07441191    -0.74600
O319        O  0.44408994  0.88504781  0.05342515    -0.74400
C320        C  0.45185499  0.95482795  0.15481716     0.77400
C321        C  0.30897387  0.92141870  0.19627117     0.77900
C322        C  0.34213654  0.95471650  0.05063122     0.76900
C323        C  0.30738213  0.81312389  0.09734210     0.77200
C324        C  0.40995445  0.81649524  0.19817276     0.78400
C325        C  0.44713858  0.84895048  0.05199207     0.77400
Zn326      Zn  0.58882601  0.09141786  0.08408464     1.49700
Zn327      Zn  0.61440902  0.17765677  0.10742263     1.49400
Zn328      Zn  0.61382241  0.11327595  0.17000714     1.49100
Zn329      Zn  0.67600680  0.11192858  0.10636651     1.49500
O330        O  0.62286541  0.12346927  0.11647958    -1.83900
O331        O  0.55479418  0.12532753  0.05102610    -0.74500
O332        O  0.60032819  0.20593763  0.15593689    -0.74300
O333        O  0.57427282  0.07365705  0.17476254    -0.73800
O334        O  0.57271178  0.18337106  0.06872403    -0.74500
O335        O  0.55471244  0.05746562  0.11703491    -0.74100
O336        O  0.59731092  0.15987009  0.19830918    -0.74700
O337        O  0.70427178  0.09463648  0.15323649    -0.74100
O338        O  0.66232484  0.20377731  0.08837209    -0.74800
O339        O  0.66060823  0.09541069  0.19808721    -0.74200
O340        O  0.70504511  0.15767762  0.08726785    -0.74700
O341        O  0.67874032  0.07095079  0.06783477    -0.74600
O342        O  0.62011582  0.05583296  0.04977852    -0.74400
C343        C  0.55200936  0.16143808  0.04876366     0.77400
C344        C  0.59516953  0.19491611  0.19009674     0.77900
C345        C  0.55337528  0.05392886  0.15304353     0.76900
C346        C  0.69497336  0.09026609  0.18783844     0.77200
C347        C  0.69626763  0.19250024  0.08258121     0.78400
C348        C  0.65608803  0.05135513  0.04776355     0.77400
C349        C  0.49766904  0.50270355  0.27154426     0.80500
N350        N  0.52167576  0.47951995  0.29037615    -0.77800
C351        C  0.52272744  0.47902766  0.32883540     0.82900
N352        N  0.49909751  0.50247446  0.34905981    -0.77800
C353        C  0.47502232  0.52623008  0.32978882     0.83000
N354        N  0.47494147  0.52615700  0.29139304    -0.79500
C355        C  0.73267002  0.49473716  0.50480521     0.80500
N356        N  0.71277426  0.47284412  0.48084489    -0.77800
C357        C  0.67429170  0.47431835  0.47986928     0.82900
N358        N  0.65515667  0.49855795  0.50348778    -0.77800
C359        C  0.67541876  0.52118436  0.52757141     0.83000
N360        N  0.71398102  0.51921343  0.52768529    -0.79500
Zn361      Zn  0.58757127  0.41405724  0.41373347     1.49700
Zn362      Zn  0.67436106  0.39381994  0.38840448     1.49400
Zn363      Zn  0.61274286  0.32893653  0.38778320     1.49100
Zn364      Zn  0.61221043  0.39479250  0.32582503     1.49500
O365        O  0.62119834  0.38315358  0.37925214    -1.83900
O366        O  0.61953342  0.44702797  0.44968073    -0.74500
O367        O  0.70311207  0.34712983  0.40417324    -0.74300
O368        O  0.57225879  0.32156219  0.42752870    -0.73800
O369        O  0.67770192  0.43128642  0.42994137    -0.74500
O370        O  0.55396012  0.37909359  0.44653609    -0.74100
O371        O  0.66078382  0.30111529  0.40365413    -0.74700
O372        O  0.59648759  0.34831480  0.29636035    -0.74100
O373        O  0.70284285  0.41284571  0.34192147    -0.74800
O374        O  0.59702265  0.30286780  0.33953798    -0.74200
O375        O  0.65922050  0.41338638  0.29723933    -0.74700
O376        O  0.57113894  0.43380305  0.32365200    -0.74600
O377        O  0.55268944  0.44897202  0.38235461    -0.74400
C378        C  0.65563376  0.44983246  0.45185732     0.77400
C379        C  0.69496095  0.31222933  0.40782920     0.77900
C380        C  0.55160138  0.34293370  0.44830515     0.76900
C381        C  0.59290062  0.31349409  0.30519386     0.77200
C382        C  0.69358513  0.41787603  0.30734588     0.78400
C383        C  0.55015789  0.45274309  0.34639589     0.77400
C384        C  0.49839026  0.26684085  0.49746845     0.80500
N385        N  0.52248475  0.28569973  0.47399350    -0.77800
C386        C  0.52461341  0.32424537  0.47456522     0.82900
N387        N  0.50223287  0.34425585  0.49926857    -0.77800
C388        C  0.47778060  0.32515671  0.52267900     0.83000
N389        N  0.47584977  0.28685344  0.52123012    -0.79500
C390        C  0.50691302  0.73021451  0.49854501     0.80500
N391        N  0.48221909  0.71156645  0.47620659    -0.77800
C392        C  0.47946017  0.67317923  0.47735297     0.82900
N393        N  0.50186808  0.65277055  0.50170215    -0.77800
C394        C  0.52665457  0.67171570  0.52462816     0.83000
N395        N  0.52861294  0.71018584  0.52288064    -0.79500
Zn396      Zn  0.41170161  0.58874944  0.41677788     1.49700
Zn397      Zn  0.38895736  0.61403802  0.33008818     1.49400
Zn398      Zn  0.32497135  0.61369718  0.39420859     1.49100
Zn399      Zn  0.39033448  0.67558830  0.39363774     1.49500
O400        O  0.37901427  0.62256434  0.38394469    -1.83900
O401        O  0.44548281  0.55447697  0.38427356    -0.74500
O402        O  0.34163170  0.59710149  0.30246161    -0.74300
O403        O  0.32080385  0.57220255  0.43403792    -0.73800
O404        O  0.42878842  0.57382502  0.32638194    -0.74500
O405        O  0.37924004  0.55455975  0.45107353    -0.74100
O406        O  0.29647750  0.59816829  0.34619545    -0.74700
O407        O  0.34426574  0.70432084  0.41223724    -0.74100
O408        O  0.40623961  0.66152002  0.30115563    -0.74800
O409        O  0.29811819  0.66203459  0.41227944    -0.74200
O410        O  0.40697752  0.70436175  0.34661654    -0.74700
O411        O  0.43145369  0.67842990  0.43205606    -0.74600
O412        O  0.44715674  0.61988875  0.45033747    -0.74400
C413        C  0.44855978  0.55275297  0.34828054     0.77400
C414        C  0.30677248  0.59341492  0.31181506     0.77900
C415        C  0.34320648  0.55159035  0.45391611     0.76900
C416        C  0.30940587  0.69614226  0.41696249     0.77200
C417        C  0.41101802  0.69568234  0.31177007     0.78400
C418        C  0.45133548  0.65578023  0.45212457     0.77400
C419        C  0.26886687  0.49530211  0.50137069     0.80500
N420        N  0.28889018  0.47298665  0.52536957    -0.77800
C421        C  0.32728799  0.47541918  0.52689575     0.82900
N422        N  0.34612062  0.50073681  0.50396963    -0.77800
C423        C  0.32567215  0.52364431  0.48002324     0.83000
N424        N  0.28731937  0.52070122  0.47931503    -0.79500
C425        C  0.50171643  0.49683342  0.73690976     0.80500
N426        N  0.52483321  0.52063269  0.71758636    -0.77800
C427        C  0.52527785  0.52141216  0.67913541     0.82900
N428        N  0.50178779  0.49790371  0.65947541    -0.77800
C429        C  0.47795243  0.47417170  0.67891946     0.83000
N430        N  0.47791383  0.47390029  0.71745874    -0.79500
Zn431      Zn  0.37117826  0.43159135  0.63434381     1.49700
Zn432      Zn  0.35356513  0.34469871  0.65448717     1.49400
Zn433      Zn  0.37139666  0.36748153  0.56862196     1.49100
Zn434      Zn  0.43832268  0.36759828  0.63192637     1.49500
O435        O  0.38388191  0.37814165  0.62213116    -1.83900
O436        O  0.33017191  0.43505287  0.67637667    -0.74500
O437        O  0.31977118  0.31066119  0.62425171    -0.74300
O438        O  0.35260504  0.41529610  0.54231715    -0.73800
O439        O  0.32038896  0.37415863  0.68985161    -0.74500
O440        O  0.35285371  0.45986867  0.58708429    -0.74100
O441        O  0.33030804  0.32596301  0.56384483    -0.74700
O442        O  0.46473833  0.35048146  0.58335247    -0.74100
O443        O  0.38577456  0.31199226  0.68784915    -0.74800
O444        O  0.41816538  0.34947151  0.54061732    -0.74200
O445        O  0.44555764  0.32626357  0.67314038    -0.74700
O446        O  0.46417238  0.41499736  0.65126217    -0.74600
O447        O  0.41787380  0.45829689  0.65433460    -0.74400
C448        C  0.31396703  0.40910821  0.69598729     0.77400
C449        C  0.31310584  0.30630277  0.58911739     0.77900
C450        C  0.34680361  0.44937430  0.55301903     0.76900
C451        C  0.45274603  0.34424800  0.54984010     0.77200
C452        C  0.42126547  0.30755009  0.69264972     0.78400
C453        C  0.45229430  0.44820264  0.65940337     0.77400
Zn454      Zn  0.67493667  0.60979079  0.61270747     1.49700
Zn455      Zn  0.61146536  0.60852473  0.67694488     1.49400
Zn456      Zn  0.60948349  0.67068882  0.61365501     1.49100
Zn457      Zn  0.58785287  0.58454972  0.59077656     1.49500
O458        O  0.62075195  0.61775151  0.62319639    -1.83900
O459        O  0.70335916  0.59162843  0.65922192    -0.74500
O460        O  0.59451725  0.65579494  0.70549708    -0.74300
O461        O  0.65574172  0.70017672  0.59816099    -0.73800
O462        O  0.65876966  0.59050450  0.70343600    -0.74500
O463        O  0.70251424  0.65844849  0.59717419    -0.74100
O464        O  0.58981635  0.69827405  0.65967108    -0.74700
O465        O  0.55364763  0.61669278  0.55544640    -0.74100
O466        O  0.57178717  0.56863430  0.68222078    -0.74800
O467        O  0.57154929  0.67462434  0.57281976    -0.74200
O468        O  0.55400743  0.55055589  0.62440053    -0.74700
O469        O  0.62129124  0.55025645  0.55737270    -0.74600
O470        O  0.67954350  0.56997863  0.57246612    -0.74400
C471        C  0.69334570  0.58601881  0.69348194     0.77400
C472        C  0.58718091  0.68949929  0.69464192     0.77900
C473        C  0.69080341  0.69262610  0.59413662     0.76900
C474        C  0.55165086  0.65278474  0.55227066     0.77200
C475        C  0.55158651  0.54812731  0.66051000     0.78400
C476        C  0.65738568  0.54854620  0.55360977     0.77400
C477        C  0.23152899  0.99759634  0.50018727     0.80500
N478        N  0.21162651  0.97520170  0.47640042    -0.77800
C479        C  0.17315193  0.97684319  0.47570548     0.82900
N480        N  0.15413715  0.00135197  0.49915726    -0.77800
C481        C  0.17452858  0.02424813  0.52280791     0.83000
N482        N  0.21289948  0.02220320  0.52273307    -0.79500
C483        C  0.76811842  0.00155925  0.50342745     0.80500
N484        N  0.78764903  0.97720833  0.52564714    -0.77800
C485        C  0.82622554  0.97603367  0.52481529     0.82900
N486        N  0.84576353  0.99964207  0.50079456    -0.77800
C487        C  0.82588449  0.02401873  0.47792775     0.83000
N488        N  0.78736499  0.02453639  0.47948463    -0.79500
C489        C  0.99986593  0.23055972  0.49832137     0.80500
N490        N  0.97697459  0.21125445  0.47469324    -0.77800
C491        C  0.97752204  0.17272723  0.47370864     0.82900
N492        N  0.00176641  0.15306322  0.49699158    -0.77800
C493        C  0.02533112  0.17287084  0.52058856     0.83000
N494        N  0.02408792  0.21129674  0.52076352    -0.79500
C495        C  0.99675486  0.99517138  0.26668959     0.80500
N496        N  0.02100492  0.97265562  0.28626650    -0.77800
C497        C  0.02171466  0.97344526  0.32471269     0.82900
N498        N  0.99790079  0.99717804  0.34418275    -0.77800
C499        C  0.97323270  0.01970556  0.32449131     0.83000
N500        N  0.97279152  0.01812793  0.28604607    -0.79500
C501        C  0.00312651  0.76598495  0.50247545     0.80500
N502        N  0.02533323  0.78578917  0.47813057    -0.77800
C503        C  0.02472075  0.82421829  0.47795305     0.82900
N504        N  0.00117254  0.84336670  0.50224978    -0.77800
C505        C  0.97834757  0.82332958  0.52657434     0.83000
N506        N  0.97956517  0.78479210  0.52632657    -0.79500
Zn507      Zn  0.15180814  0.84809485  0.34866072     1.49700
Zn508      Zn  0.13025735  0.93396837  0.36852351     1.49400
Zn509      Zn  0.06593478  0.86755688  0.36962639     1.49100
Zn510      Zn  0.13114484  0.86897459  0.43423421     1.49500
O511        O  0.11954050  0.87997336  0.38049798    -1.83900
O512        O  0.18742192  0.87914671  0.31736973    -0.74500
O513        O  0.08263695  0.95955149  0.34866163    -0.74300
O514        O  0.06119332  0.82697956  0.32769643    -0.73800
O515        O  0.17340122  0.93957539  0.32864846    -0.74500
O516        O  0.12172317  0.81627041  0.31275985    -0.74100
O517        O  0.03824110  0.91444546  0.35138582    -0.74700
O518        O  0.08411060  0.85049886  0.46182026    -0.74100
O519        O  0.14693823  0.96183692  0.41605887    -0.74800
O520        O  0.03939148  0.84855619  0.41723258    -0.74200
O521        O  0.14913485  0.91658922  0.46041997    -0.74700
O522        O  0.17290215  0.82805736  0.43972776    -0.74600
O523        O  0.18464273  0.81329921  0.37951414    -0.74400
C524        C  0.19351118  0.91428195  0.31204558     0.77400
C525        C  0.04858646  0.94828566  0.34385717     0.77900
C526        C  0.08650753  0.81030860  0.30764568     0.76900
C527        C  0.05023713  0.84351915  0.45134660     0.77200
C528        C  0.15379344  0.95090663  0.44987503     0.78400
C529        C  0.19078064  0.80873710  0.41474646     0.77400
Zn530      Zn  0.91271985  0.08560627  0.41216625     1.49700
Zn531      Zn  0.88947965  0.17240767  0.38822161     1.49400
Zn532      Zn  0.88804517  0.10813021  0.32655287     1.49100
Zn533      Zn  0.82534113  0.10975514  0.39007896     1.49500
O534        O  0.87920429  0.11869576  0.37977634    -1.83900
O535        O  0.94796981  0.11826084  0.44526078    -0.74500
O536        O  0.90536316  0.20058437  0.34006351    -0.74300
O537        O  0.92692353  0.06740358  0.32119175    -0.73800
O538        O  0.93024918  0.17641415  0.42728659    -0.74500
O539        O  0.94576813  0.05034530  0.37902994    -0.74100
O540        O  0.90536389  0.15445522  0.29801956    -0.74700
O541        O  0.79623742  0.09214410  0.34381402    -0.74100
O542        O  0.84271638  0.20053830  0.40628940    -0.74800
O543        O  0.84054472  0.09181970  0.29951192    -0.74200
O544        O  0.79740034  0.15734233  0.40646755    -0.74700
O545        O  0.82176177  0.07053923  0.43071965    -0.74600
O546        O  0.88012497  0.05221509  0.44737470    -0.74400
C547        C  0.95075966  0.15434326  0.44745466     0.77400
C548        C  0.90946084  0.18932952  0.30594302     0.77900
C549        C  0.94739011  0.04704049  0.34297990     0.76900
C550        C  0.80595583  0.08751689  0.30936305     0.77200
C551        C  0.80790228  0.19155798  0.41076457     0.78400
C552        C  0.84403367  0.05015411  0.45074870     0.77400
C553        C  0.99564577  0.00604922  0.73077180     0.80500
N554        N  0.97390954  0.98173146  0.71107600    -0.77800
C555        C  0.97586795  0.97987596  0.67269992     0.82900
N556        N  0.00065246  0.00291756  0.65343578    -0.77800
C557        C  0.02318901  0.02733939  0.67348879     0.83000
N558        N  0.02052694  0.02841842  0.71191165    -0.79500
Zn559      Zn  0.89077202  0.82611173  0.61392977     1.49700
Zn560      Zn  0.89127565  0.89184723  0.67411693     1.49400
Zn561      Zn  0.91430822  0.91246986  0.58726541     1.49100
Zn562      Zn  0.82739963  0.89002801  0.61234890     1.49500
O563        O  0.88127954  0.88033686  0.62133451    -1.83900
O564        O  0.90601205  0.79950560  0.66277167    -0.74500
O565        O  0.93032706  0.93207412  0.67672666    -0.74300
O566        O  0.94828671  0.87795423  0.55430732    -0.73800
O567        O  0.90831022  0.84609482  0.70428017    -0.74500
O568        O  0.93158843  0.82009616  0.57433253    -0.74100
O569        O  0.94867888  0.94837445  0.61840954    -0.74700
O570        O  0.82300044  0.92946964  0.57209389    -0.74100
O571        O  0.84460332  0.90991639  0.70193610    -0.74800
O572        O  0.88104389  0.94594538  0.55250193    -0.74200
O573        O  0.79882440  0.90772830  0.65937368    -0.74700
O574        O  0.79958143  0.84274693  0.59608612    -0.74600
O575        O  0.84343689  0.79781523  0.59767779    -0.74400
C576        C  0.91084492  0.81094951  0.69668350     0.77400
C577        C  0.95059486  0.95212603  0.65438680     0.77900
C578        C  0.95151304  0.84180250  0.55307531     0.76900
C579        C  0.84489276  0.94914040  0.55090931     0.77200
C580        C  0.80970795  0.91353914  0.69321940     0.78400
C581        C  0.80908814  0.80797522  0.59276112     0.77400
Zn582      Zn  0.08886096  0.08803206  0.58633693     1.49700
Zn583      Zn  0.11275306  0.11212547  0.67230262     1.49400
Zn584      Zn  0.17649186  0.11209214  0.60895652     1.49100
Zn585      Zn  0.11187105  0.17426886  0.60721782     1.49500
O586        O  0.12239427  0.12120171  0.61850057    -1.83900
O587        O  0.05438041  0.05476243  0.61939200    -0.74500
O588        O  0.15990992  0.09431539  0.70060063    -0.74300
O589        O  0.17959694  0.07199541  0.56865450    -0.73800
O590        O  0.07138702  0.07317925  0.67732655    -0.74500
O591        O  0.12105556  0.05363631  0.55285177    -0.74100
O592        O  0.20473886  0.09433615  0.65649353    -0.74700
O593        O  0.15871655  0.20271523  0.59010878    -0.74100
O594        O  0.09674039  0.16039090  0.69916217    -0.74800
O595        O  0.20472164  0.16019458  0.59209188    -0.74200
O596        O  0.09371785  0.20318663  0.65335396    -0.74700
O597        O  0.07246300  0.17736496  0.56687975    -0.74600
O598        O  0.05450549  0.11905221  0.55097264    -0.74400
C599        C  0.05103457  0.05291676  0.65539751     0.77400
C600        C  0.19459177  0.08961611  0.69093650     0.77900
C601        C  0.15705272  0.05135117  0.54928599     0.76900
C602        C  0.19373951  0.19439883  0.58692782     0.77200
C603        C  0.09068869  0.19434921  0.68832218     0.78400
C604        C  0.05210108  0.15497050  0.54724390     0.77400
C605        C  0.75545905  0.71475196  0.57465853    -0.05500
C606        C  0.71885886  0.72418814  0.58808916     0.00400
C607        C  0.71143417  0.76261423  0.59867020    -0.08200
C608        C  0.74141323  0.78900624  0.59729392    -0.05500
C609        C  0.77863741  0.77891658  0.58659618     0.00400
C610        C  0.78550469  0.74130811  0.57360070    -0.08100
C611        C  0.82421033  0.72866545  0.55897845     0.62300
H612        H  0.76086909  0.68572660  0.56612909     0.13000
H613        H  0.73622086  0.81779104  0.60662928     0.13000
C614        C  0.67281790  0.77612287  0.61320175     0.62600
F615        F  0.82235780  0.69391811  0.54080031    -0.22600
F616        F  0.84924871  0.72504570  0.58893279    -0.19900
F617        F  0.83810343  0.75490533  0.53311801    -0.19600
F618        F  0.66277513  0.75600536  0.64551226    -0.19700
F619        F  0.64565724  0.77120659  0.58541426    -0.20000
F620        F  0.67282959  0.81427696  0.62262277    -0.22700
C621        C  0.26057980  0.21397165  0.57190649    -0.05500
C622        C  0.22270688  0.22512051  0.57961682     0.00400
C623        C  0.21483412  0.26481111  0.58395219    -0.08200
C624        C  0.24537662  0.29070186  0.58335522    -0.05500
C625        C  0.28306186  0.27886636  0.57875904     0.00400
C626        C  0.29091705  0.24019294  0.57166449    -0.08100
C627        C  0.33143074  0.22676500  0.56517059     0.62300
H628        H  0.26667494  0.18413869  0.56771070     0.13000
H629        H  0.24037345  0.32055324  0.58881919     0.13000
C630        C  0.17507795  0.28044797  0.59125981     0.62600
F631        F  0.33325624  0.18811935  0.55822573    -0.22600
F632        F  0.35315430  0.23437639  0.59682881    -0.19900
F633        F  0.34676799  0.24560341  0.53420131    -0.19600
F634        F  0.16128073  0.26666174  0.62544382    -0.19700
F635        F  0.15111850  0.27018424  0.56202894    -0.20000
F636        F  0.17465522  0.31972829  0.59330195    -0.22700
C637        C  0.25851970  0.79284089  0.42259615    -0.05500
C638        C  0.22065306  0.78112694  0.42565097     0.00400
C639        C  0.21254142  0.74242255  0.43216734    -0.08200
C640        C  0.24271883  0.71595705  0.43200638    -0.05500
C641        C  0.28075713  0.72695086  0.42527397     0.00400
C642        C  0.28900458  0.76669824  0.42275224    -0.08100
C643        C  0.32918118  0.78219395  0.41854303     0.62300
H644        H  0.26383719  0.82277926  0.41781853     0.13000
H645        H  0.23633188  0.68607019  0.43528154     0.13000
C646        C  0.17190170  0.72920982  0.43782968     0.62600
F647        F  0.33005229  0.82147314  0.42043719    -0.22600
F648        F  0.34423592  0.77175324  0.38377151    -0.19900
F649        F  0.35181720  0.76844326  0.44753744    -0.19600
F650        F  0.15104211  0.73645835  0.40541558    -0.19700
F651        F  0.15572908  0.74849811  0.46800952    -0.20000
F652        F  0.16997345  0.69067988  0.44558058    -0.22700
C653        C  0.71479273  0.24683027  0.42661834    -0.05500
C654        C  0.72573559  0.28353587  0.41499028     0.00400
C655        C  0.76497653  0.29047644  0.40734585    -0.08200
C656        C  0.79070924  0.25986680  0.40914014    -0.05500
C657        C  0.77921012  0.22248807  0.41741958     0.00400
C658        C  0.74064691  0.21614439  0.42809975    -0.00500
C659        C  0.72611062  0.17741136  0.44055075     0.62300
H660        H  0.68512818  0.24185004  0.43323399     0.13000
H661        H  0.82019527  0.26479584  0.40186395     0.13000
C662        C  0.78014993  0.32925545  0.39541139     0.62600
F663        F  0.69004486  0.17961168  0.45635588    -0.22600
F664        F  0.75001405  0.16206677  0.46767781    -0.19900
F665        F  0.72424386  0.15343617  0.40964902    -0.19600
F666        F  0.77270306  0.35559759  0.42351079    -0.19700
F667        F  0.76334999  0.34054817  0.36177128    -0.20000
F668        F  0.81910679  0.32893962  0.38950187    -0.22700
C669        C  0.71194482  0.07654987  0.25521323    -0.05500
C670        C  0.72446260  0.08156742  0.21745073     0.00400
C671        C  0.76436814  0.08134061  0.21017607    -0.08200
C672        C  0.78949680  0.08061264  0.24118341    -0.05500
C673        C  0.77685030  0.07998719  0.27916921     0.00400
C674        C  0.73719778  0.07549349  0.28622303    -0.08100
C675        C  0.72082968  0.07055183  0.32596110     0.62300
H676        H  0.68167436  0.07517808  0.26067759     0.13000
H677        H  0.81971358  0.08249062  0.23569370     0.13000
C678        C  0.78119583  0.08304247  0.17030704     0.62600
F679        F  0.68270506  0.06080672  0.32529503    -0.22600
F680        F  0.72399781  0.10415866  0.34584115    -0.19900
F681        F  0.73998706  0.04184725  0.34485144    -0.19600
F682        F  0.77306396  0.11778186  0.15373638    -0.19700
F683        F  0.76648517  0.05397164  0.14855342    -0.20000
F684        F  0.82036441  0.07884991  0.17032983    -0.22700
C685        C  0.58172528  0.26163394  0.20982629    -0.05500
C686        C  0.58871465  0.22375801  0.22084570     0.00400
C687        C  0.59252356  0.21552066  0.26034605    -0.08200
C688        C  0.59098005  0.24567460  0.28642044    -0.05500
C689        C  0.58697471  0.28386461  0.27519041     0.00400
C690        C  0.58095589  0.29191383  0.23600306    -0.08100
C691        C  0.57450632  0.33201457  0.22109038     0.62300
H692        H  0.57826012  0.26773063  0.17992764     0.13000
H693        H  0.59480530  0.23949336  0.31622744     0.13000
C694        C  0.59978535  0.17562550  0.27571987     0.62600
F695        F  0.56451508  0.33232030  0.18312191    -0.22600
F696        F  0.60748202  0.35300499  0.22460725    -0.19900
F697        F  0.54530266  0.34922251  0.24113355    -0.19600
F698        F  0.63374107  0.16169170  0.26139513    -0.19700
F699        F  0.57015899  0.15193239  0.26579976    -0.20000
F700        F  0.60243872  0.17484716  0.31492555    -0.22700
C701        C  0.28993759  0.91451226  0.26386721    -0.05500
C702        C  0.28084483  0.92862182  0.22757049     0.00400
C703        C  0.24446005  0.94547017  0.22208718    -0.08200
C704        C  0.21704687  0.94296454  0.25153633    -0.05500
C705        C  0.22516169  0.92468407  0.28604212     0.00400
C706        C  0.26272042  0.91201671  0.29313204    -0.08100
C707        C  0.27390586  0.89532433  0.33139564     0.62300
H708        H  0.31808674  0.90311702  0.26865148     0.13000
H709        H  0.18838613  0.95326393  0.24691480     0.13000
C710        C  0.23448887  0.96621032  0.18565600     0.62600
F711        F  0.31283205  0.89017562  0.33421946    -0.22600
F712        F  0.25677901  0.86039906  0.33670178    -0.19900
F713        F  0.26262404  0.91960939  0.36012793    -0.19600
F714        F  0.22844060  0.94043021  0.15683086    -0.19700
F715        F  0.26378856  0.99044345  0.17553205    -0.20000
F716        F  0.20182291  0.98784143  0.18985460    -0.22700
C717        C  0.43121470  0.75204930  0.21987659    -0.05500
C718        C  0.41642019  0.78801537  0.22949981     0.00400
C719        C  0.40480395  0.79426646  0.26784498    -0.08200
C720        C  0.40590245  0.76368972  0.29372523    -0.05500
C721        C  0.41768679  0.72696488  0.28332190     0.00400
C722        C  0.43245861  0.72150095  0.24608069    -0.08100
C723        C  0.44978398  0.68395618  0.23372477     0.62300
H724        H  0.44083564  0.74756841  0.19101025     0.13000
H725        H  0.39551125  0.76798716  0.32231576     0.13000
C726        C  0.38919699  0.83218986  0.28164841     0.62600
F727        F  0.46907025  0.68733819  0.19952226    -0.22600
F728        F  0.42154502  0.65712772  0.22922750    -0.19900
F729        F  0.47551645  0.67147926  0.26064587    -0.19600
F730        F  0.35713391  0.84173240  0.26112614    -0.19700
F731        F  0.41654963  0.86008806  0.27749558    -0.20000
F732        F  0.37887178  0.83118851  0.31961933    -0.22700
C733        C  0.21503011  0.09428932  0.75829879    -0.05500
C734        C  0.22374117  0.08210003  0.72122028     0.00400
C735        C  0.26048099  0.06624942  0.71423723    -0.08200
C736        C  0.28816231  0.06738760  0.74330959    -0.05500
C737        C  0.28007633  0.08308606  0.77896515     0.00400
C738        C  0.24250627  0.09503194  0.78721112    -0.08100
C739        C  0.23188819  0.11000210  0.82621247     0.62300
H740        H  0.18695931  0.10559474  0.76411217     0.13000
H741        H  0.31694691  0.05786377  0.73770429     0.13000
C742        C  0.27076204  0.04809117  0.67657541     0.62600
F743        F  0.19297013  0.11448773  0.83029768    -0.22600
F744        F  0.24887111  0.14486709  0.83177473    -0.19900
F745        F  0.24408557  0.08488488  0.85391594    -0.19600
F746        F  0.27539335  0.07578247  0.64905115    -0.19700
F747        F  0.24233794  0.02327584  0.66586550    -0.20000
F748        F  0.30434321  0.02761768  0.67887197    -0.22700
C749        C  0.44035755  0.21467566  0.74370264    -0.05500
C750        C  0.43360902  0.22559702  0.78139870     0.00400
C751        C  0.42991681  0.26466996  0.79016336    -0.08200
C752        C  0.42995252  0.29145626  0.76032827    -0.05500
C753        C  0.43325452  0.28016443  0.72230652     0.00400
C754        C  0.43993950  0.24147555  0.71383101    -0.08100
C755        C  0.44419523  0.22858166  0.67310285     0.62300
H756        H  0.44283293  0.18466348  0.73748991     0.13000
H757        H  0.42460078  0.32116649  0.76626977     0.13000
C758        C  0.42396100  0.27762398  0.83077362     0.62600
F759        F  0.45222526  0.19015272  0.67071899    -0.22600
F760        F  0.47357316  0.24839593  0.65602022    -0.19900
F761        F  0.41085593  0.23559839  0.65363104    -0.19600
F762        F  0.45272043  0.26330896  0.85337794    -0.19700
F763        F  0.38935682  0.26458566  0.84415366    -0.20000
F764        F  0.42422582  0.31683291  0.83371722    -0.22700
C765        C  0.71773250  0.93394668  0.74859151    -0.05500
C766        C  0.72673163  0.91790754  0.78417434     0.00400
C767        C  0.76492625  0.90596063  0.79078168    -0.08200
C768        C  0.79134053  0.90807635  0.76078524    -0.05500
C769        C  0.78138115  0.92055296  0.72425499     0.00400
C770        C  0.74442454  0.93577821  0.71854299    -0.08100
C771        C  0.73283468  0.95382618  0.68114954     0.62300
H772        H  0.68895514  0.94384788  0.74387278     0.13000
H773        H  0.81992742  0.89776885  0.76526095     0.13000
C774        C  0.77806001  0.88903572  0.82837173     0.62600
F775        F  0.69981353  0.97500866  0.68491983    -0.22600
F776        F  0.72649028  0.92589168  0.65446022    -0.19900
F777        F  0.76115717  0.97797567  0.66835176    -0.19600
F778        F  0.75728822  0.85672011  0.83671871    -0.19700
F779        F  0.77356231  0.91545594  0.85695758    -0.20000
F780        F  0.81608158  0.87872596  0.82764115    -0.22700
C781        C  0.57057206  0.74434859  0.78718414    -0.05500
C782        C  0.57921693  0.78170592  0.77547348     0.00400
C783        C  0.58297899  0.78904146  0.73579090    -0.08200
C784        C  0.58313489  0.75809950  0.71056036    -0.05500
C785        C  0.57877684  0.72027505  0.72285937     0.00400
C786        C  0.56950997  0.71360923  0.76161605    -0.08100
C787        C  0.55842978  0.67458045  0.77645440     0.62300
H788        H  0.56596225  0.73885761  0.81709813     0.13000
H789        H  0.58866859  0.76336595  0.68077899     0.13000
C790        C  0.58788190  0.82881191  0.71937469     0.62600
F791        F  0.54225883  0.67658054  0.81231240    -0.22600
F792        F  0.59019731  0.65149138  0.77869343    -0.19900
F793        F  0.53190440  0.65835631  0.75261121    -0.19600
F794        F  0.62293309  0.84327334  0.72946726    -0.19700
F795        F  0.55915320  0.85229801  0.73255215    -0.20000
F796        F  0.58603664  0.82906547  0.68011368    -0.22700
C797        C  0.07990167  0.76115478  0.21259602    -0.05500
C798        C  0.07585153  0.72280973  0.22388042     0.00400
C799        C  0.06715979  0.71509084  0.26277033    -0.08200
C800        C  0.06789506  0.74522410  0.28915563    -0.05500
C801        C  0.07593101  0.78256118  0.27801459     0.00400
C802        C  0.07997934  0.79113653  0.23902239    -0.08100
C803        C  0.08494381  0.83190577  0.22566805     0.62300
H804        H  0.08514276  0.76758780  0.18298172     0.13000
H805        H  0.06442253  0.73944274  0.31919114     0.13000
C806        C  0.05784208  0.67548732  0.27713398     0.62600
F807        F  0.08500584  0.83474396  0.18645989    -0.22600
F808        F  0.11894493  0.84629393  0.23884581    -0.19900
F809        F  0.05531431  0.85387766  0.23945310    -0.19600
F810        F  0.09049821  0.65357294  0.27812467    -0.19700
F811        F  0.03126927  0.65876381  0.25371093    -0.20000
F812        F  0.04260371  0.67630321  0.31344309    -0.22700
C813        C  0.24111061  0.79236438  0.08245896    -0.05500
C814        C  0.27875302  0.78193552  0.09132851     0.00400
C815        C  0.28699445  0.74255488  0.09692579    -0.08200
C816        C  0.25703341  0.71608458  0.09511754    -0.05500
C817        C  0.21900647  0.72675892  0.08872813     0.00400
C818        C  0.21108536  0.76575331  0.08104124    -0.08100
C819        C  0.17134047  0.77989763  0.07159350     0.62300
H820        H  0.23495968  0.82212757  0.07769941     0.13000
H821        H  0.26312423  0.68643210  0.10035025     0.13000
C822        C  0.32671384  0.72776386  0.10611096     0.62600
F823        F  0.17152591  0.81725268  0.05914688    -0.22600
F824        F  0.14839127  0.77802017  0.10352383    -0.19900
F825        F  0.15598454  0.75804139  0.04296126    -0.19600
F826        F  0.33929107  0.74342478  0.13975483    -0.19700
F827        F  0.35151759  0.73680594  0.07687727    -0.20000
F828        F  0.32759097  0.68867099  0.11050621    -0.22700
C829        C  0.28928974  0.59408482  0.24342468    -0.05500
C830        C  0.27795047  0.58654672  0.28109274     0.00400
C831        C  0.23960339  0.57539669  0.28778381    -0.08200
C832        C  0.21379722  0.57547105  0.25717677    -0.05500
C833        C  0.22450709  0.58614849  0.22008870     0.00400
C834        C  0.26359332  0.59429542  0.21281702    -0.08100
C835        C  0.27856190  0.60495407  0.17355651     0.62300
H836        H  0.31860467  0.60176167  0.23816845     0.13000
H837        H  0.18429931  0.56842732  0.26247058     0.13000
C838        C  0.22537426  0.56353054  0.32679660     0.62600
F839        F  0.31737947  0.61147674  0.17343753    -0.22600
F840        F  0.26103859  0.63788831  0.16107626    -0.19900
F841        F  0.27173741  0.57571599  0.14837665    -0.19600
F842        F  0.22340558  0.59481669  0.35034777    -0.19700
F843        F  0.24968232  0.53665260  0.34203383    -0.20000
F844        F  0.18944755  0.54758241  0.32532951    -0.22700
C845        C  0.91405748  0.23970231  0.20913298    -0.05500
C846        C  0.92264005  0.27678391  0.22004179     0.00400
C847        C  0.93060316  0.28462839  0.25844889    -0.08200
C848        C  0.92797544  0.25483500  0.28525929    -0.05500
C849        C  0.91711713  0.21768893  0.27487463     0.00400
C850        C  0.91073421  0.20988347  0.23558891    -0.08100
C851        C  0.89835462  0.17118215  0.22102612     0.62300
H852        H  0.90764048  0.23487519  0.17949810     0.13000
H853        H  0.93336139  0.26077710  0.31487255     0.13000
C854        C  0.94115463  0.32445058  0.27090534     0.62600
F855        F  0.89330968  0.17097434  0.18206560    -0.22600
F856        F  0.86405685  0.16101426  0.23752440    -0.19900
F857        F  0.92584846  0.14435792  0.22932365    -0.19600
F858        F  0.91328021  0.35001834  0.26025968    -0.19700
F859        F  0.97511381  0.33476881  0.25390541    -0.20000
F860        F  0.94542676  0.32682297  0.30986699    -0.22700
C861        C  0.75007392  0.28491260  0.06130308    -0.05500
C862        C  0.78633648  0.27505492  0.07444186     0.00400
C863        C  0.79445323  0.23670424  0.08325584    -0.08200
C864        C  0.76471119  0.21007435  0.08281525    -0.05500
C865        C  0.72711198  0.22054881  0.07376147     0.00400
C866        C  0.72025709  0.25809875  0.06012611    -0.08100
C867        C  0.68180980  0.27048483  0.04500689     0.62300
H868        H  0.74459345  0.31436108  0.05416329     0.13000
H869        H  0.77045334  0.18123066  0.09185919     0.13000
C870        C  0.83447656  0.22425203  0.09359907     0.62600
F871        F  0.68451389  0.30404277  0.02458179    -0.22600
F872        F  0.65674891  0.27626020  0.07479156    -0.19900
F873        F  0.66750553  0.24307948  0.02092966    -0.19600
F874        F  0.84529297  0.24062597  0.12745426    -0.19700
F875        F  0.85938578  0.23551060  0.06525827    -0.20000
F876        F  0.83726460  0.18520135  0.09757766    -0.22700
C877        C  0.76179959  0.41528121  0.28863109    -0.05500
C878        C  0.72435184  0.42515939  0.27837857     0.00400
C879        C  0.71767026  0.43760271  0.24036681    -0.08200
C880        C  0.74778666  0.43587152  0.21358916    -0.05500
C881        C  0.78392575  0.42229097  0.22348532     0.00400
C882        C  0.79146795  0.41310097  0.26181324    -0.08100
C883        C  0.83044774  0.39915221  0.27394930     0.62300
H884        H  0.76737855  0.40655077  0.31754717     0.13000
H885        H  0.74263846  0.44281120  0.18407208     0.13000
C886        C  0.67906792  0.45179832  0.22735133     0.62600
F887        F  0.83325002  0.39568557  0.31299515    -0.22600
F888        F  0.85799952  0.42445755  0.26178274    -0.19900
F889        F  0.83742236  0.36392279  0.25818351    -0.19600
F890        F  0.66466663  0.47773666  0.25311399    -0.19700
F891        F  0.65427640  0.42160685  0.22398228    -0.20000
F892        F  0.68136815  0.46975964  0.19239399    -0.22700
C893        C  0.91080152  0.75902095  0.79283989    -0.05500
C894        C  0.91657035  0.72116380  0.78142021     0.00400
C895        C  0.92563283  0.71405450  0.74263885    -0.08200
C896        C  0.92614151  0.74479961  0.71684633    -0.05500
C897        C  0.91707151  0.78220146  0.72771095     0.00400
C898        C  0.91017555  0.78960281  0.76693398    -0.08100
C899        C  0.89994864  0.82888892  0.78182582     0.62300
H900        H  0.90447382  0.76443428  0.82239900     0.13000
H901        H  0.93198049  0.73935769  0.68717669     0.13000
C902        C  0.93394814  0.67439616  0.72768292     0.62600
F903        F  0.89408071  0.82903685  0.82072353    -0.22600
F904        F  0.86669298  0.84130897  0.76503782    -0.19900
F905        F  0.92911022  0.85406955  0.77404208    -0.19600
F906        F  0.90106135  0.65291775  0.72814814    -0.19700
F907        F  0.96145256  0.65706689  0.74976238    -0.20000
F908        F  0.94731510  0.67513962  0.69066191    -0.22700
C909        C  0.73740616  0.70699808  0.91019204    -0.05500
C910        C  0.77498540  0.71797956  0.91819989     0.00400
C911        C  0.78172117  0.75634968  0.92878889    -0.08200
C912        C  0.75120366  0.78245510  0.92796370    -0.05500
C913        C  0.71423807  0.77211150  0.91677629     0.00400
C914        C  0.70695451  0.73308847  0.90885790    -0.08100
C915        C  0.66792540  0.71856828  0.89727040     0.62300
H916        H  0.73219204  0.67766211  0.90292595     0.13000
H917        H  0.75655039  0.81191491  0.93473373     0.13000
C918        C  0.82073625  0.77032873  0.94069760     0.62600
F919        F  0.66776954  0.67971606  0.89125511    -0.22600
F920        F  0.65675890  0.73583731  0.86377680    -0.19900
F921        F  0.64169216  0.72609744  0.92564913    -0.19600
F922        F  0.84492263  0.77130263  0.90964413    -0.19700
F923        F  0.83540371  0.74649849  0.96831172    -0.20000
F924        F  0.81925642  0.80660286  0.95568942    -0.22700
C925        C  0.78719663  0.56852783  0.74605682    -0.05500
C926        C  0.77620816  0.57705889  0.78357968     0.00400
C927        C  0.73668277  0.58151580  0.79171899    -0.08200
C928        C  0.71079166  0.58158760  0.76143634    -0.05500
C929        C  0.72230708  0.57731331  0.72341481     0.00400
C930        C  0.76101143  0.56806768  0.71581907    -0.08100
C931        C  0.77531290  0.55823691  0.67627019     0.62300
H932        H  0.81704901  0.56374957  0.74010752     0.13000
H933        H  0.68110809  0.58716426  0.76736172     0.13000
C934        C  0.72119705  0.58777936  0.83165414     0.62600
F935        F  0.81143142  0.54251028  0.67714955    -0.22600
F936        F  0.77684104  0.59066171  0.65405943    -0.19900
F937        F  0.75144976  0.53189699  0.65974901    -0.19600
F938        F  0.73411455  0.62202886  0.84567954    -0.19700
F939        F  0.73266711  0.55831017  0.85502036    -0.20000
F940        F  0.68183352  0.58882371  0.83265944    -0.22700
C941        C  0.09094502  0.26269986  0.70575451    -0.05500
C942        C  0.08328849  0.22505198  0.71685290     0.00400
C943        C  0.07201955  0.21806779  0.75504269    -0.08200
C944        C  0.07298568  0.24823562  0.78124398    -0.05500
C945        C  0.08434306  0.28522126  0.77093856     0.00400
C946        C  0.09173451  0.29298856  0.73179961    -0.08100
C947        C  0.10212435  0.33235423  0.71705085     0.62300
H948        H  0.09847763  0.26808137  0.67643405     0.13000
H949        H  0.06622775  0.24252338  0.81071056     0.13000
C950        C  0.05934566  0.17911111  0.76876683     0.62600
F951        F  0.10622778  0.33318555  0.67794157    -0.22600
F952        F  0.13632295  0.34369076  0.73252538    -0.19900
F953        F  0.07377103  0.35802426  0.72639308    -0.19600
F954        F  0.09042898  0.15516337  0.77167181    -0.19700
F955        F  0.03324029  0.16402939  0.74374479    -0.20000
F956        F  0.04206095  0.18085675  0.80410586    -0.22700
C957        C  0.25377450  0.28230690  0.92983034    -0.05500
C958        C  0.21802889  0.27279121  0.91453893     0.00400
C959        C  0.21203445  0.23463059  0.90216712    -0.08200
C960        C  0.24237083  0.20852621  0.90445285    -0.05500
C961        C  0.27845219  0.21901437  0.91720673     0.00400
C962        C  0.28427586  0.25618407  0.93077804    -0.08100
C963        C  0.32313889  0.26858550  0.94423566     0.62300
H964        H  0.25832161  0.31109816  0.93944677     0.13000
H965        H  0.23880685  0.17977540  0.89436397     0.13000
C966        C  0.17493109  0.22133419  0.88450125     0.62600
F967        F  0.32277253  0.30564523  0.95720724    -0.22600
F968        F  0.34896301  0.26616477  0.91463618    -0.19900
F969        F  0.33493481  0.24525178  0.97356719    -0.19600
F970        F  0.16699523  0.24269850  0.85244606    -0.19700
F971        F  0.14559933  0.22473987  0.91051117    -0.20000
F972        F  0.17651074  0.18363797  0.87353684    -0.22700
C973        C  0.25098136  0.43276283  0.71769531    -0.05500
C974        C  0.28702373  0.41866343  0.72698246     0.00400
C975        C  0.29510038  0.40909585  0.76513230    -0.08200
C976        C  0.26545060  0.41003588  0.79210737    -0.05500
C977        C  0.22803102  0.42045611  0.78227776     0.00400
C978        C  0.22128432  0.43444365  0.74480119    -0.08100
C979        C  0.18316816  0.45081053  0.73279450     0.62300
H980        H  0.24563536  0.44053640  0.68842038     0.13000
H981        H  0.27113528  0.40064136  0.82080994     0.13000
C982        C  0.33505687  0.39791933  0.77717297     0.62600
F983        F  0.18591202  0.47022842  0.69865409    -0.22600
F984        F  0.17017382  0.47618003  0.75983789    -0.19900
F985        F  0.15701581  0.42195740  0.72828528    -0.19600
F986        F  0.36036460  0.42587042  0.76597674    -0.19700
F987        F  0.34545539  0.36390039  0.76059168    -0.20000
F988        F  0.33783968  0.39367002  0.81613978    -0.22700
C989        C  0.79152105  0.99709878  0.03377098    -0.05500
C990        C  0.77281723  0.99598499  0.99875186     0.00400
C991        C  0.79423609  0.99486630  0.96457333    -0.08200
C992        C  0.83404647  0.99464383  0.96690950    -0.05500
C993        C  0.85280629  0.99584837  0.00192446     0.00400
C994        C  0.83134948  0.99674375  0.03612098    -0.08100
C995        C  0.85004716  0.99613326  0.07494737     0.62300
H996        H  0.77450726  0.99798249  0.05945445     0.13000
H997        H  0.85099828  0.99389561  0.94118427     0.13000
C998        C  0.77548258  0.99502983  0.92576320     0.62600
F999        F  0.82373130  0.99103501  0.10386458    -0.22600
F1000       F  0.86845068  0.03016697  0.08126139    -0.19900
F1001       F  0.87596425  0.96657044  0.07691643    -0.19600
F1002       F  0.74951694  0.02452295  0.92344483    -0.19700
F1003       F  0.75711513  0.96091396  0.91993553    -0.20000
F1004       F  0.80172277  0.99974346  0.89672457    -0.22700
C1005       C  0.96623672  0.83363204  0.99794611    -0.05500
C1006       C  0.00187413  0.85143496  0.99828689     0.00400
C1007       C  0.03549870  0.82921599  0.00055970    -0.08200
C1008       C  0.03196095  0.78958480  0.00177901    -0.05500
C1009       C  0.99632551  0.77181628  0.00126834     0.00400
C1010       C  0.96271087  0.79403590  0.00002083    -0.08100
C1011       C  0.92332113  0.77646721  0.00228595     0.62300
H1012       H  0.94093843  0.85118979  0.99669773     0.13000
H1013       H  0.05722357  0.77198404  0.00312172     0.13000
C1014       C  0.07496080  0.84679204  0.00122080     0.62600
F1015       F  0.89526471  0.80368431  0.00726260    -0.22600
F1016       F  0.92135741  0.75159410  0.03272160    -0.19900
F1017       F  0.91561364  0.75723086  0.96910265    -0.19600
F1018       F  0.08051490  0.86510034  0.03539939    -0.19700
F1019       F  0.07890484  0.87248948  0.97168390    -0.20000
F1020       F  0.10329722  0.81968317  0.99734589    -0.22700
C1021       C  0.02944541  0.00478296  0.79155971    -0.05500
C1022       C  0.99454752  0.00599192  0.77255140     0.00400
C1023       C  0.96008351  0.00701575  0.79358945    -0.08200
C1024       C  0.96192830  0.00501610  0.83336376    -0.05500
C1025       C  0.99686090  0.00352695  0.85228438     0.00400
C1026       C  0.03133345  0.00380816  0.83127939    -0.08100
C1027       C  0.06997059  0.00257424  0.85048026     0.62300
H1028       H  0.05540127  0.00444274  0.77488801     0.13000
H1029       H  0.93602683  0.00515909  0.85013064     0.13000
C1030       C  0.92170407  0.01181775  0.77447358     0.62600
F1031       F  0.09917541  0.99672201  0.82465776    -0.22600
F1032       F  0.07111843  0.97329851  0.87675180    -0.19900
F1033       F  0.07659676  0.03669904  0.86856765    -0.19600
F1034       F  0.91219442  0.97900704  0.75534828    -0.19700
F1035       F  0.92308541  0.04191740  0.74914511    -0.20000
F1036       F  0.89309162  0.01931979  0.80053158    -0.22700
C1037       C  0.03185435  0.16156046  0.99403285    -0.05500
C1038       C  0.99834398  0.14348115  0.00607537     0.00400
C1039       C  0.96642582  0.16574934  0.01681839    -0.08200
C1040       C  0.96932800  0.20547544  0.01434689    -0.05500
C1041       C  0.00267765  0.22360910  0.00161259     0.00400
C1042       C  0.03481204  0.20120109  0.99149639    -0.08100
C1043       C  0.07233405  0.21829339  0.97830195     0.62300
H1044       H  0.05599579  0.14410352  0.98616598     0.13000
H1045       H  0.94508101  0.22282281  0.02209568     0.13000
C1046       C  0.92918222  0.14813516  0.03010459     0.62600
F1047       F  0.10081697  0.19120776  0.97544675    -0.22600
F1048       F  0.08437911  0.24541379  0.00385770    -0.19900
F1049       F  0.06787605  0.23453388  0.94280755    -0.19600
F1050       F  0.93449239  0.13006501  0.06460471    -0.19700
F1051       F  0.91640721  0.12229276  0.00359064    -0.20000
F1052       F  0.90091960  0.17509127  0.03496466    -0.22700
C1053       C  0.16526054  0.96529583  0.99250643    -0.05500
C1054       C  0.14620854  0.00001921  0.98743288     0.00400
C1055       C  0.16754557  0.03341868  0.97967955    -0.08200
C1056       C  0.20741343  0.03096429  0.97998543    -0.05500
C1057       C  0.22641612  0.99656840  0.98703520     0.00400
C1058       C  0.20507674  0.96272570  0.99173914    -0.08100
C1059       C  0.22373820  0.92385926  0.99503626     0.62300
H1060       H  0.14855897  0.93989278  0.99731161     0.13000
H1061       H  0.22421559  0.05634670  0.97558138     0.13000
C1062       C  0.14886787  0.07173725  0.97213744     0.62600
F1063       F  0.19771787  0.89483226  0.99014445    -0.22600
F1064       F  0.23974971  0.91954329  0.03054179    -0.19900
F1065       F  0.25155422  0.91986610  0.96742546    -0.19600
F1066       F  0.12446260  0.08087450  0.00164019    -0.19700
F1067       F  0.12885147  0.07042591  0.93846606    -0.20000
F1068       F  0.17530689  0.10066614  0.96887573    -0.22700
C1069       C  0.00341444  0.95986368  0.20645535    -0.05500
C1070       C  0.99708856  0.99482830  0.22465648     0.00400
C1071       C  0.99282205  0.02833711  0.20248874    -0.08200
C1072       C  0.99553962  0.02545775  0.16294156    -0.05500
C1073       C  0.00179102  0.99064740  0.14479867     0.00400
C1074       C  0.00535375  0.95699774  0.16667433    -0.08100
C1075       C  0.00971573  0.91820114  0.14835832     0.62300
H1076       H  0.00640855  0.93456466  0.22375626     0.13000
H1077       H  0.99249818  0.05069923  0.14556144     0.13000
C1078       C  0.98559466  0.06718719  0.21984812     0.62600
F1079       F  0.00764195  0.88910322  0.17482887    -0.22600
F1080       F  0.04459085  0.91568432  0.13028542    -0.19900
F1081       F  0.98101500  0.91270062  0.12222679    -0.19600
F1082       F  0.01217538  0.07457664  0.24766078    -0.19700
F1083       F  0.94940358  0.06820667  0.23530024    -0.20000
F1084       F  0.98802454  0.09604533  0.19314182    -0.22700
C1085       C  0.01019238  0.66214737  0.52985215    -0.05500
C1086       C  0.00293235  0.64455979  0.49486627     0.00400
C1087       C  0.99645169  0.66731254  0.46213776    -0.08200
C1088       C  0.99702295  0.70700208  0.46607732    -0.05500
C1089       C  0.00324796  0.72427738  0.50127324     0.00400
C1090       C  0.01040079  0.70173897  0.53373992    -0.08100
C1091       C  0.01903477  0.71921401  0.57212055     0.62300
H1092       H  0.01500971  0.64448258  0.55459241     0.13000
H1093       H  0.99192352  0.72507738  0.44167556     0.13000
C1094       C  0.98966084  0.65032550  0.42314236     0.62600
F1095       F  0.03020258  0.69210691  0.59840413    -0.22600
F1096       F  0.98696424  0.73714804  0.58618013    -0.19900
F1097       F  0.04818697  0.74530489  0.56848377    -0.19600
F1098       F  0.95498670  0.63190976  0.42265721    -0.19700
F1099       F  0.01839555  0.62489047  0.41437161    -0.20000
F1100       F  0.98904281  0.67787351  0.39498864    -0.22700
C1101       C  0.79218408  0.52955344  0.49563864    -0.05500
C1102       C  0.77437548  0.49481786  0.50318652     0.00400
C1103       C  0.79637202  0.46152818  0.50827799    -0.08200
C1104       C  0.83608521  0.46458471  0.50661625    -0.05500
C1105       C  0.85415916  0.49933326  0.49885624     0.00400
C1106       C  0.83186594  0.53246045  0.49252388    -0.08100
C1107       C  0.84932324  0.57078800  0.48286836     0.62300
H1108       H  0.77445460  0.55436983  0.49128755     0.13000
H1109       H  0.85344845  0.43947591  0.51071016     0.13000
C1110       C  0.77822946  0.42308732  0.51583420     0.62600
F1111       F  0.82224057  0.59937190  0.48141035    -0.22600
F1112       F  0.86675175  0.56910990  0.44764260    -0.19900
F1113       F  0.87572118  0.58061482  0.51007988    -0.19600
F1114       F  0.75903290  0.41118106  0.48388983    -0.19700
F1115       F  0.75301837  0.42566725  0.54595576    -0.20000
F1116       F  0.80505276  0.39563725  0.52473188    -0.22700
C1117       C  0.03476931  0.50238141  0.66340608    -0.05500
C1118       C  0.99929754  0.50434050  0.64555309     0.00400
C1119       C  0.96583623  0.50874857  0.66750762    -0.08200
C1120       C  0.96900923  0.50883340  0.70720742    -0.05500
C1121       C  0.00438073  0.50514807  0.72531287     0.00400
C1122       C  0.03810190  0.50293647  0.70308003    -0.08100
C1123       C  0.07751736  0.50221714  0.72060743     0.62300
H1124       H  0.05999914  0.49971860  0.64583885     0.13000
H1125       H  0.94357958  0.51111785  0.72450310     0.13000
C1126       C  0.92718580  0.51449291  0.64921762     0.62600
F1127       F  0.10577957  0.50727386  0.69356650    -0.22600
F1128       F  0.08378316  0.46762353  0.73816383    -0.19900
F1129       F  0.08081172  0.53114819  0.74684786    -0.19600
F1130       F  0.91590308  0.48142538  0.63154217    -0.19700
F1131       F  0.92915429  0.54352693  0.62271139    -0.20000
F1132       F  0.89960151  0.52413537  0.67566576    -0.22700
C1133       C  0.16658619  0.49093305  0.46847266    -0.05500
C1134       C  0.14728565  0.49429590  0.50320936     0.00400
C1135       C  0.16809140  0.49572087  0.53758551    -0.08200
C1136       C  0.20793599  0.49484305  0.53560931    -0.05500
C1137       C  0.22715293  0.49337864  0.50072434     0.00400
C1138       C  0.20638211  0.49075365  0.46648931    -0.08100
C1139       C  0.22586435  0.48752215  0.42805095     0.62300
H1140       H  0.15011516  0.48961868  0.44261202     0.13000
H1141       H  0.22453399  0.49663601  0.56136176     0.13000
C1142       C  0.14870016  0.49791864  0.57618088     0.62600
F1143       F  0.20034282  0.47905748  0.39950408    -0.22600
F1144       F  0.25292280  0.45895232  0.42898320    -0.19900
F1145       F  0.24309057  0.52158209  0.41889237    -0.19600
F1146       F  0.12125925  0.46997583  0.57930380    -0.19700
F1147       F  0.13195967  0.53320341  0.58063253    -0.20000
F1148       F  0.17423380  0.49277963  0.60557383    -0.22700
C1149       C  0.03403709  0.29111618  0.49816103    -0.05500
C1150       C  0.99906666  0.27221526  0.49983635     0.00400
C1151       C  0.96503845  0.29301492  0.50546515    -0.08200
C1152       C  0.96717477  0.33275337  0.50743052    -0.05500
C1153       C  0.00201755  0.35184674  0.50402674     0.00400
C1154       C  0.03629258  0.33077588  0.50027826    -0.08100
C1155       C  0.07519302  0.34960220  0.49913523     0.62300
H1156       H  0.05971862  0.27442542  0.49458196     0.13000
H1157       H  0.94139109  0.34933385  0.51066491     0.13000
C1158       C  0.92683227  0.27346903  0.51023760     0.62600
F1159       F  0.10427641  0.32344498  0.50383045    -0.22600
F1160       F  0.07808322  0.37597709  0.52800091    -0.19900
F1161       F  0.08055010  0.36742109  0.46449437    -0.19600
F1162       F  0.92941919  0.24522389  0.53752267    -0.19700
F1163       F  0.91584903  0.25769252  0.47614005    -0.20000
F1164       F  0.89872234  0.29860802  0.52161914    -0.22700
C1165       C  0.03536793  0.48373289  0.33548026    -0.05500
C1166       C  0.00025608  0.48985426  0.35365498     0.00400
C1167       C  0.96657726  0.49298160  0.33177541    -0.08200
C1168       C  0.96988792  0.49233685  0.29212974    -0.05500
C1169       C  0.00527269  0.48847553  0.27416227     0.00400
C1170       C  0.03850096  0.48283053  0.29584169    -0.08100
C1171       C  0.07684461  0.47513632  0.27733981     0.62300
H1172       H  0.06068207  0.48064862  0.35263156     0.13000
H1173       H  0.94481880  0.49579267  0.27466965     0.13000
C1174       C  0.92726076  0.49600109  0.34971490     0.62600
F1175       F  0.10390810  0.46437284  0.30371792    -0.22600
F1176       F  0.08971615  0.50751421  0.25915425    -0.19900
F1177       F  0.07351567  0.44606965  0.25123809    -0.19600
F1178       F  0.92296247  0.53086264  0.36715491    -0.19700
F1179       F  0.92237464  0.46728134  0.37617696    -0.20000
F1180       F  0.89868574  0.49264023  0.32301335    -0.22700
C1181       C  0.53803688  0.83364244  0.49864259    -0.05500
C1182       C  0.50254580  0.85200196  0.49943709     0.00400
C1183       C  0.46872150  0.83020843  0.49882889    -0.08200
C1184       C  0.47178541  0.79050953  0.49832500    -0.05500
C1185       C  0.50718929  0.77210183  0.49864577     0.00400
C1186       C  0.54107944  0.79382588  0.49840553    -0.08100
C1187       C  0.58017185  0.77536468  0.49683744     0.62300
H1188       H  0.56350833  0.85088128  0.49873773     0.13000
H1189       H  0.44626480  0.77334086  0.49840947     0.13000
C1190       C  0.42951329  0.84847238  0.49796951     0.62600
F1191       F  0.60872721  0.80185745  0.49134197    -0.22600
F1192       F  0.58183463  0.74981165  0.46713119    -0.19900
F1193       F  0.58738962  0.75658554  0.53054862    -0.19600
F1194       F  0.42785000  0.87539476  0.46931937    -0.19700
F1195       F  0.42194110  0.86552381  0.53247999    -0.20000
F1196       F  0.40119749  0.82209060  0.49136605    -0.22700
C1197       C  0.66442741  0.00356990  0.53416558    -0.05500
C1198       C  0.64636086  0.00249230  0.49878559     0.00400
C1199       C  0.66835743  0.00249348  0.46497970    -0.08200
C1200       C  0.70810613  0.00235965  0.46803018    -0.05500
C1201       C  0.72621615  0.00192196  0.50342536     0.00400
C1202       C  0.70421737  0.00309634  0.53720644    -0.08100
C1203       C  0.72237637  0.00460271  0.57621454     0.62300
H1204       H  0.64697266  0.00387339  0.55956806     0.13000
H1205       H  0.72550568  0.00183935  0.44259126     0.13000
C1206       C  0.65023285  0.00344471  0.42586538     0.62600
F1207       F  0.69577009  0.01128548  0.60450994    -0.22600
F1208       F  0.74888125  0.03354635  0.57735840    -0.19900
F1209       F  0.73998720  0.97036719  0.58409240    -0.19600
F1210       F  0.62378822  0.03254155  0.42395146    -0.19700
F1211       F  0.63254204  0.96920685  0.41869912    -0.20000
F1212       F  0.67689437  0.00948554  0.39746718    -0.22700
C1213       C  0.46695186  0.00561326  0.70503552    -0.05500
C1214       C  0.50220435  0.00122129  0.72312877     0.00400
C1215       C  0.53583907  0.99714408  0.70098281    -0.08200
C1216       C  0.53260361  0.99735322  0.66131429    -0.05500
C1217       C  0.49730493  0.00096077  0.64340894     0.00400
C1218       C  0.46381112  0.00547731  0.66534161    -0.08100
C1219       C  0.42519057  0.01140661  0.64705303     0.62300
H1220       H  0.44163925  0.00872810  0.72237297     0.13000
H1221       H  0.55773948  0.99400617  0.64374220     0.13000
C1222       C  0.57510906  0.99325109  0.71857579     0.62600
F1223       F  0.39726440  0.01954164  0.67366384    -0.22600
F1224       F  0.41446587  0.97892913  0.62799556    -0.19900
F1225       F  0.42696115  0.04148712  0.62175032    -0.19600
F1226       F  0.57861136  0.95810246  0.73585772    -0.19700
F1227       F  0.58069033  0.02161041  0.74504130    -0.20000
F1228       F  0.60376657  0.99621552  0.69165423    -0.22700
C1229       C  0.49451957  0.16317190  0.52801528    -0.05500
C1230       C  0.49695963  0.14490441  0.49288871     0.00400
C1231       C  0.49962080  0.16663466  0.45907473    -0.08200
C1232       C  0.49991518  0.20645894  0.46192723    -0.05500
C1233       C  0.49699262  0.22484697  0.49715869     0.00400
C1234       C  0.49416174  0.20285802  0.53094132    -0.08100
C1235       C  0.49129176  0.22059745  0.57011936     0.62300
H1236       H  0.49225537  0.14581628  0.55336943     0.13000
H1237       H  0.50197269  0.22366446  0.43646595     0.13000
C1238       C  0.50309482  0.14805075  0.42034029     0.62600
F1239       F  0.49538040  0.19378459  0.59865051    -0.22600
F1240       F  0.45601909  0.23750307  0.57455215    -0.19900
F1241       F  0.51958915  0.24738550  0.57477124    -0.19600
F1242       F  0.46959856  0.12959839  0.41164932    -0.19700
F1243       F  0.53273474  0.12214072  0.42040966    -0.20000
F1244       F  0.51019873  0.17439980  0.39193411    -0.22700
C1245       C  0.29145010  0.99889784  0.46480462    -0.05500
C1246       C  0.27318936  0.99670014  0.50002188     0.00400
C1247       C  0.29481850  0.99424812  0.53377508    -0.08200
C1248       C  0.33456007  0.99391367  0.53068346    -0.05500
C1249       C  0.35299880  0.99710549  0.49543555     0.00400
C1250       C  0.33111508  0.99978259  0.46174607    -0.08100
C1251       C  0.34920820  0.00295314  0.42275492     0.62300
H1252       H  0.27395708  0.00105173  0.43928030     0.13000
H1253       H  0.35182182  0.99218287  0.55627049     0.13000
C1254       C  0.27625698  0.99170066  0.57275233     0.62600
F1255       F  0.32270533  0.00013121  0.39394537    -0.22600
F1256       F  0.37534194  0.97399201  0.41806560    -0.19900
F1257       F  0.36697028  0.03777305  0.41909537    -0.19600
F1258       F  0.24920076  0.96323917  0.57314602    -0.19700
F1259       F  0.25920265  0.02597292  0.58159968    -0.20000
F1260       F  0.30247647  0.98360668  0.60084902    -0.22700
C1261       C  0.47401052  0.99156876  0.28951718    -0.05500
C1262       C  0.50915015  0.99766284  0.27148825     0.00400
C1263       C  0.54250795  0.00181978  0.29368665    -0.08200
C1264       C  0.53896545  0.00045387  0.33341281    -0.05500
C1265       C  0.50356109  0.99558963  0.35115047     0.00400
C1266       C  0.47056019  0.99042593  0.32903257    -0.08100
C1267       C  0.43193939  0.98316256  0.34688949     0.62300
H1268       H  0.44878753  0.98850857  0.27229081     0.13000
H1269       H  0.56379769  0.00410644  0.35111081     0.13000
C1270       C  0.58168323  0.00703557  0.27607320     0.62600
F1271       F  0.40495911  0.97321416  0.32021567    -0.22600
F1272       F  0.41945567  0.01570486  0.36485690    -0.19900
F1273       F  0.43465172  0.95372535  0.37284463    -0.19600
F1274       F  0.58415490  0.04245999  0.25921345    -0.19700
F1275       F  0.58824371  0.97918413  0.24922298    -0.20000
F1276       F  0.61023276  0.00449557  0.30292118    -0.22700
C1277       C  0.49470550  0.71232368  0.03336349    -0.05500
C1278       C  0.49226924  0.73026055  0.99787421     0.00400
C1279       C  0.49089311  0.70820292  0.96431309    -0.08200
C1280       C  0.49279371  0.66853778  0.96768753    -0.05500
C1281       C  0.49559676  0.65063612  0.00316774     0.00400
C1282       C  0.49668387  0.67268011  0.03672691    -0.08100
C1283       C  0.50136525  0.65477829  0.07577331     0.62300
H1284       H  0.49576675  0.72980904  0.05857426     0.13000
H1285       H  0.49194858  0.65102594  0.94247966     0.13000
C1286       C  0.48648058  0.72606291  0.92521455     0.62600
F1287       F  0.50762668  0.68179393  0.10350692    -0.22600
F1288       F  0.53215860  0.63024428  0.07560813    -0.19900
F1289       F  0.46883881  0.63501605  0.08559589    -0.19600
F1290       F  0.51968775  0.74436860  0.91485515    -0.19700
F1291       F  0.45673150  0.75184549  0.92552540    -0.20000
F1292       F  0.47876116  0.69913457  0.89776763    -0.22700
C1293       C  0.66474635  0.49393172  0.03610018    -0.05500
C1294       C  0.64676886  0.50577852  0.00252297     0.00400
C1295       C  0.66910730  0.51450705  0.97006560    -0.08200
C1296       C  0.70878038  0.51184697  0.97295673    -0.05500
C1297       C  0.72686245  0.50006429  0.00654148     0.00400
C1298       C  0.70439663  0.49037422  0.03878536    -0.08100
C1299       C  0.72141060  0.47647082  0.07602007     0.62300
H1300       H  0.64720783  0.48709615  0.06050712     0.13000
H1301       H  0.72613957  0.51865081  0.94842518     0.13000
C1302       C  0.65163702  0.52545545  0.93212624     0.62600
F1303       F  0.69418388  0.47266637  0.10428890    -0.22600
F1304       F  0.74831185  0.50198014  0.08873986    -0.19900
F1305       F  0.73797438  0.44118215  0.07083758    -0.19600
F1306       F  0.63420485  0.56058513  0.93494457    -0.19700
F1307       F  0.62528549  0.49846273  0.92140738    -0.20000
F1308       F  0.67864828  0.52778214  0.90356078    -0.22700
C1309       C  0.53268272  0.49888104  0.83998925    -0.05500
C1310       C  0.49743314  0.50107809  0.85848813     0.00400
C1311       C  0.46337719  0.50075064  0.83708986    -0.08200
C1312       C  0.46611399  0.49874631  0.79734282    -0.05500
C1313       C  0.50146466  0.49712532  0.77878381     0.00400
C1314       C  0.53543230  0.49640310  0.80037170    -0.08100
C1315       C  0.57443230  0.49192401  0.78211995     0.62300
H1316       H  0.55826530  0.49879734  0.85702899     0.13000
H1317       H  0.44054809  0.49896871  0.78030207     0.13000
C1318       C  0.42443456  0.50365522  0.85584426     0.62600
F1319       F  0.60219772  0.48395019  0.80875951    -0.22600
F1320       F  0.58451759  0.52514424  0.76369481    -0.19900
F1321       F  0.57398358  0.46230418  0.75642692    -0.19600
F1322       F  0.42351084  0.53429252  0.88033022    -0.19700
F1323       F  0.41670299  0.47070872  0.87588104    -0.20000
F1324       F  0.39580075  0.50871949  0.82946017    -0.22700
C1325       C  0.46719903  0.50598482  0.16845261    -0.05500
C1326       C  0.50256454  0.50301594  0.15016267     0.00400
C1327       C  0.53633792  0.50052837  0.17182624    -0.08200
C1328       C  0.53317567  0.50056152  0.21148502    -0.05500
C1329       C  0.49778328  0.50344432  0.22979900     0.00400
C1330       C  0.46400790  0.50618810  0.20808411    -0.08100
C1331       C  0.42467725  0.50840260  0.22614419     0.62300
H1332       H  0.44182250  0.50797944  0.15122549     0.13000
H1333       H  0.55858357  0.49861955  0.22866620     0.13000
C1334       C  0.57557243  0.49898118  0.15355854     0.62600
F1335       F  0.39606967  0.50461361  0.19955528    -0.22600
F1336       F  0.41986301  0.54320444  0.24359415    -0.19900
F1337       F  0.42031331  0.47957958  0.25258526    -0.19600
F1338       F  0.57949459  0.52828729  0.12758417    -0.19700
F1339       F  0.58058457  0.46457115  0.13540953    -0.20000
F1340       F  0.60423544  0.50262013  0.18010234    -0.22700
C1341       C  0.29090059  0.50755153  0.03554163    -0.05500
C1342       C  0.27348852  0.50105718  0.00034145     0.00400
C1343       C  0.29639368  0.49554573  0.96752076    -0.08200
C1344       C  0.33602608  0.49713523  0.97140215    -0.05500
C1345       C  0.35338817  0.50360725  0.00658300     0.00400
C1346       C  0.33057992  0.50860620  0.03946121    -0.08100
C1347       C  0.34763807  0.51389407  0.07867615     0.62300
H1348       H  0.27299308  0.51148916  0.06030029     0.13000
H1349       H  0.35399958  0.49326404  0.94667208     0.13000
C1350       C  0.27968390  0.48853334  0.92840999     0.62600
F1351       F  0.32025366  0.51224628  0.10699284    -0.22600
F1352       F  0.36512253  0.54894850  0.08081205    -0.19900
F1353       F  0.37397663  0.48553020  0.08581587    -0.19600
F1354       F  0.25281650  0.51603432  0.92005269    -0.19700
F1355       F  0.26306435  0.45300377  0.92745372    -0.20000
F1356       F  0.30718138  0.48966658  0.90015991    -0.22700
C1357       C  0.46891570  0.34027413  0.99405506    -0.05500
C1358       C  0.50365357  0.35845162  0.00073047     0.00400
C1359       C  0.53745331  0.33664220  0.00342023    -0.08200
C1360       C  0.53451199  0.29691256  0.00243571    -0.05500
C1361       C  0.49954840  0.27860181  0.99662047     0.00400
C1362       C  0.46622505  0.30071783  0.99083219    -0.08100
C1363       C  0.42789974  0.28340487  0.98123610     0.62300
H1364       H  0.44361867  0.35759111  0.99108165     0.13000
H1365       H  0.55987592  0.27972356  0.00566057     0.13000
C1366       C  0.57657658  0.35484201  0.00539284     0.62600
F1367       F  0.39928530  0.31044464  0.98026302    -0.22600
F1368       F  0.41793172  0.25648618  0.00813546    -0.19900
F1369       F  0.42971721  0.26684741  0.94572905    -0.19600
F1370       F  0.58150019  0.37202343  0.04023280    -0.19700
F1371       F  0.58037101  0.38164752  0.97680619    -0.20000
F1372       F  0.60538264  0.32836542  0.00073908    -0.22700
loop_ 
_geom_bond_atom_site_label_1 
_geom_bond_atom_site_label_2 
_geom_bond_distance 
_geom_bond_site_symmetry_2 
_ccdc_geom_bond_type 
Zn1           O5   1.944       .  S
Zn1           O6   1.980       .  S
Zn1          O10   1.995       .  S
Zn1          O17   1.990       .  S
Zn2           O5   1.948   1_556  S
Zn2           O7   2.011       .  S
Zn2           O9   2.007       .  S
Zn2          O13   2.006       .  S
Zn3           O5   1.934   1_556  S
Zn3           O8   1.982       .  S
Zn3          O11   1.979       .  S
Zn3          O14   1.987       .  S
Zn4           O5   1.941       .  S
Zn4          O12   2.001       .  S
Zn4          O15   1.986       .  S
Zn4          O16   1.990       .  S
O6           C18   1.270       .  A
O7           C19   1.273       .  A
O8           C20   1.270   1_556  A
O9           C18   1.271   1_556  A
O10          C20   1.268       .  A
O11          C19   1.267       .  A
O12          C21   1.269       .  A
O13          C22   1.273   1_556  A
O14          C21   1.270   1_556  A
O15          C22   1.269       .  A
O16          C23   1.271       .  A
O17          C23   1.269       .  A
C18        C1294   1.480       .  S
C19        C1310   1.471       .  S
C20        C1358   1.474       .  S
C21        C1345   1.476       .  S
C22        C1281   1.470       .  S
C23        C1326   1.470       .  S
Zn24         O28   1.947   1_545  S
Zn24         O29   2.001       .  S
Zn24         O33   2.001       .  S
Zn24         O40   2.005       .  S
Zn25         O28   1.949       .  S
Zn25         O30   2.003       .  S
Zn25         O32   2.003       .  S
Zn25         O36   2.004       .  S
Zn26         O28   1.947   1_545  S
Zn26         O31   1.998       .  S
Zn26         O34   1.996       .  S
Zn26         O37   1.991       .  S
Zn27         O28   1.949       .  S
Zn27         O35   2.000       .  S
Zn27         O38   2.002       .  S
Zn27         O39   1.990       .  S
O29          C41   1.272       .  A
O30          C42   1.272       .  A
O31          C43   1.269       .  A
O32          C41   1.270   1_565  A
O33          C43   1.272       .  A
O34          C42   1.269   1_545  A
O35          C44   1.271       .  A
O36          C45   1.271       .  A
O37          C44   1.269   1_545  A
O38          C45   1.272       .  A
O39          C46   1.269   1_565  A
O40          C46   1.272       .  A
C41        C1217   1.470       .  S
C42        C1249   1.476       .  S
C43        C1230   1.472       .  S
C44        C1265   1.469       .  S
C45        C1182   1.475       .  S
C46        C1198   1.472       .  S
Zn47         O51   1.940       .  S
Zn47         O52   1.991       .  S
Zn47         O56   1.991       .  S
Zn47         O63   1.993       .  S
Zn48         O51   1.940       .  S
Zn48         O53   1.975       .  S
Zn48         O55   1.996       .  S
Zn48         O59   1.991       .  S
Zn49         O51   1.950   1_655  S
Zn49         O54   2.006       .  S
Zn49         O57   2.013       .  S
Zn49         O60   1.998       .  S
Zn50         O51   1.947   1_655  S
Zn50         O58   1.996       .  S
Zn50         O61   1.995       .  S
Zn50         O62   2.006       .  S
O52          C64   1.268       .  A
O53          C65   1.267       .  A
O54          C66   1.271       .  A
O55          C64   1.271       .  A
O56          C66   1.270   1_455  A
O57          C65   1.273   1_655  A
O58          C67   1.269       .  A
O59          C68   1.271       .  A
O60          C67   1.272       .  A
O61          C68   1.269   1_655  A
O62          C69   1.270   1_655  A
O63          C69   1.272       .  A
C64        C1134   1.472       .  S
C65        C1153   1.473       .  S
C66        C1118   1.470       .  S
C67        C1105   1.478       .  S
C68        C1166   1.473       .  S
C69        C1086   1.480       .  S
Zn70         O74   1.936   1_445  S
Zn70         O75   1.984       .  S
Zn70         O79   1.979       .  S
Zn70         O86   1.989       .  S
Zn71         O74   1.940   1_544  S
Zn71         O76   1.992       .  S
Zn71         O78   2.004       .  S
Zn71         O82   1.985       .  S
Zn72         O74   1.952       .  S
Zn72         O77   2.019       .  S
Zn72         O80   2.009       .  S
Zn72         O83   2.006       .  S
Zn73         O74   1.952   1_454  S
Zn73         O81   1.984       .  S
Zn73         O84   2.013       .  S
Zn73         O85   2.011       .  S
O75          C87   1.271   1_456  A
O76          C88   1.269   1_545  A
O77          C89   1.273   1_565  A
O78          C87   1.270       .  A
O79          C89   1.267   1_455  A
O80          C88   1.273   1_556  A
O81          C90   1.268   1_554  A
O82          C91   1.271   1_645  A
O83          C90   1.274   1_655  A
O84          C91   1.271       .  A
O85          C92   1.274   1_554  A
O86          C92   1.268   1_545  A
C87        C1038   1.481       .  S
C88         C993   1.475       .  S
C89        C1025   1.470       .  S
C90        C1006   1.472       .  S
C91        C1073   1.475       .  S
C92        C1054   1.481   1_565  S
C93        C1297   1.484       .  S
C93          N94   1.349       .  A
C93          N98   1.352   1_554  A
N94          C95   1.353       .  A
C95         C192   1.453       .  S
C95          N96   1.365       .  A
N96          C97   1.363   1_554  A
C97         C169   1.470       .  S
C97          N98   1.356       .  A
C99        C1342   1.479   1_556  S
C99         N100   1.347       .  A
C99         N104   1.350   1_556  A
N100        C101   1.356       .  A
C101        C142   1.481       .  S
C101        N102   1.373   1_556  A
N102        C103   1.373       .  A
C103        C216   1.481       .  S
C103        N104   1.356       .  A
C105       C1169   1.464       .  S
C105        N106   1.350       .  A
C105        N110   1.348   1_455  A
N106        C107   1.356       .  A
C107        C219   1.476       .  S
C107        N108   1.369       .  A
N108        C109   1.368   1_455  A
C109        C194   1.461       .  S
C109        N110   1.351       .  A
C111       C1041   1.486       .  S
C111        N112   1.351   1_554  A
C111        N116   1.352   1_455  A
N112        C113   1.357       .  A
C113        C145   1.477       .  S
C113        N114   1.366       .  A
N114        C115   1.367   1_456  A
C115        C193   1.461       .  S
C115        N116   1.353       .  A
C117       C1121   1.480       .  S
C117        N118   1.351   1_455  A
C117        N122   1.349       .  A
N118        C119   1.357       .  A
C119        C170   1.472       .  S
C119        N120   1.367   1_655  A
N120        C121   1.367       .  A
C121        C140   1.473       .  S
C121        N122   1.357       .  A
Zn123       O127   2.014       .  S
Zn123       O128   2.062       .  S
Zn123       O132   2.069       .  S
Zn123       O139   2.066       .  S
Zn124       O127   1.947       .  S
Zn124       O129   2.019       .  S
Zn124       O131   1.987       .  S
Zn124       O135   2.014       .  S
Zn125       O127   1.957       .  S
Zn125       O130   2.013       .  S
Zn125       O133   2.040       .  S
Zn125       O136   2.043       .  S
Zn126       O127   1.951       .  S
Zn126       O134   2.014       .  S
Zn126       O137   2.031       .  S
Zn126       O138   1.999       .  S
O128        C140   1.277       .  A
O129        C141   1.270       .  A
O130        C142   1.278       .  A
O131        C140   1.274       .  A
O132        C142   1.278       .  A
O133        C141   1.275       .  A
O134        C143   1.270       .  A
O135        C144   1.269       .  A
O136        C143   1.276       .  A
O137        C144   1.274       .  A
O138        C145   1.275       .  A
O139        C145   1.278       .  A
C141        C977   1.503       .  S
C143        C958   1.503       .  S
C144        C945   1.504       .  S
C146       C1009   1.471       .  S
C146        N147   1.345   1_554  A
C146        N151   1.348   1_655  A
N147        C148   1.355       .  A
C148        C173   1.472       .  S
C148        N149   1.369   1_556  A
N149        C150   1.370   1_655  A
C150        C215   1.471       .  S
C150        N151   1.355       .  A
Zn152       O156   1.938       .  S
Zn152       O157   1.977       .  S
Zn152       O161   2.004       .  S
Zn152       O168   2.020       .  S
Zn153       O156   2.012       .  S
Zn153       O158   2.057       .  S
Zn153       O160   2.058       .  S
Zn153       O164   2.058       .  S
Zn154       O156   1.950       .  S
Zn154       O159   2.031       .  S
Zn154       O162   1.994       .  S
Zn154       O165   2.020       .  S
Zn155       O156   1.944       .  S
Zn155       O163   2.023       .  S
Zn155       O166   1.989       .  S
Zn155       O167   2.028       .  S
O157        C169   1.272       .  A
O158        C170   1.277       .  A
O159        C171   1.274       .  A
O160        C169   1.277       .  A
O161        C171   1.268       .  A
O162        C170   1.275       .  A
O163        C172   1.274       .  A
O164        C173   1.276       .  A
O165        C172   1.270       .  A
O166        C173   1.275       .  A
O167        C174   1.271       .  A
O168        C174   1.273       .  A
C171        C926   1.501       .  S
C172        C894   1.503       .  S
C174        C910   1.504       .  S
Zn175       O179   1.974       .  S
Zn175       O180   2.013       .  S
Zn175       O184   2.030       .  S
Zn175       O191   2.076       .  S
Zn176       O179   1.976       .  S
Zn176       O181   2.021       .  S
Zn176       O183   2.011       .  S
Zn176       O187   2.067       .  S
Zn177       O179   1.976       .  S
Zn177       O182   2.017       .  S
Zn177       O185   2.025       .  S
Zn177       O188   2.061       .  S
Zn178       O179   1.943       .  S
Zn178       O186   1.983       .  S
Zn178       O189   1.993       .  S
Zn178       O190   1.996       .  S
O180        C192   1.273       .  A
O181        C193   1.273       .  A
O182        C194   1.273       .  A
O183        C192   1.273       .  A
O184        C194   1.274       .  A
O185        C193   1.274       .  A
O186        C195   1.269       .  A
O187        C196   1.277       .  A
O188        C195   1.276       .  A
O189        C196   1.269       .  A
O190        C197   1.269       .  A
O191        C197   1.278       .  A
C195        C846   1.475       .  S
C196        C862   1.480       .  S
C197        C881   1.485       .  S
Zn198       O202   1.953       .  S
Zn198       O203   1.996       .  S
Zn198       O207   2.032       .  S
Zn198       O214   2.029       .  S
Zn199       O202   2.016       .  S
Zn199       O204   2.064       .  S
Zn199       O206   2.048       .  S
Zn199       O210   2.048       .  S
Zn200       O202   1.949       .  S
Zn200       O205   2.035       .  S
Zn200       O208   2.015       .  S
Zn200       O211   2.020       .  S
Zn201       O202   1.959       .  S
Zn201       O209   2.036       .  S
Zn201       O212   2.020       .  S
Zn201       O213   2.048       .  S
O203        C215   1.276       .  A
O204        C216   1.276       .  A
O205        C217   1.276       .  A
O206        C215   1.276       .  A
O207        C217   1.271       .  A
O208        C216   1.277       .  A
O209        C218   1.276       .  A
O210        C219   1.276       .  A
O211        C218   1.271       .  A
O212        C219   1.278       .  A
O213        C220   1.274       .  A
O214        C220   1.274       .  A
C217        C817   1.508       .  S
C218        C833   1.504       .  S
C220        C798   1.508       .  S
C221       C1361   1.480       .  S
C221        N222   1.350       .  A
C221        N226   1.354   1_556  A
N222        C223   1.352       .  A
C223        C298   1.464       .  S
C223        N224   1.367       .  A
N224        C225   1.368   1_556  A
C225        C343   1.476       .  S
C225        N226   1.357       .  A
C227       C1278   1.471       .  S
C227        N228   1.350   1_556  A
C227        N232   1.345       .  A
N228        C229   1.358       .  A
C229        C325   1.476       .  S
C229        N230   1.371   1_554  A
N230        C231   1.370       .  A
C231        C272   1.473       .  S
C231        N232   1.354       .  A
C233       C1262   1.477       .  S
C233        N234   1.348       .  A
C233        N238   1.346   1_565  A
N234        C235   1.354       .  A
C235        C320   1.470       .  S
C235        N236   1.367   1_565  A
N236        C237   1.368       .  A
C237        C345   1.468       .  S
C237        N238   1.357       .  A
C239       C1057   1.479       .  S
C239        N240   1.354   1_565  A
C239        N244   1.351   1_556  A
N240        C241   1.355       .  A
C241        C297   1.471       .  S
C241        N242   1.370       .  A
N242        C243   1.370   1_546  A
C243        C322   1.481       .  S
C243        N244   1.356       .  A
C245        C990   1.473       .  S
C245        N246   1.345       .  A
C245        N250   1.349   1_566  A
N246        C247   1.354       .  A
C247        C271   1.470       .  S
C247        N248   1.369       .  A
N248        C249   1.369   1_566  A
C249        C348   1.472       .  S
C249        N250   1.358       .  A
Zn251       O255   1.949       .  S
Zn251       O256   2.018       .  S
Zn251       O260   2.035       .  S
Zn251       O267   1.993       .  S
Zn252       O255   1.946       .  S
Zn252       O257   2.024       .  S
Zn252       O259   2.029       .  S
Zn252       O263   1.995       .  S
Zn253       O255   1.940       .  S
Zn253       O258   2.015       .  S
Zn253       O261   2.030       .  S
Zn253       O264   1.988       .  S
Zn254       O255   2.015       .  S
Zn254       O262   2.052       .  S
Zn254       O265   2.054       .  S
Zn254       O266   2.049       .  S
O256        C268   1.270       .  A
O257        C269   1.271       .  A
O258        C270   1.270       .  A
O259        C268   1.274       .  A
O260        C270   1.274       .  A
O261        C269   1.274       .  A
O262        C271   1.275       .  A
O263        C272   1.275       .  A
O264        C271   1.275       .  A
O265        C272   1.275       .  A
O266        C273   1.276       .  A
O267        C273   1.275       .  A
C268        C782   1.504       .  S
C269        C913   1.505       .  S
C270        C766   1.500       .  S
C273        C276   1.470       .  S
C274       C1214   1.477       .  S
C274        N275   1.348   1_545  A
C274        N279   1.353       .  A
N275        C276   1.354       .  A
C276        N277   1.365   1_565  A
N277        C278   1.366       .  A
C278        C299   1.461       .  S
C278        N279   1.355       .  A
Zn280       O284   1.977       .  S
Zn280       O285   2.034       .  S
Zn280       O289   2.026       .  S
Zn280       O296   2.077       .  S
Zn281       O284   1.983       .  S
Zn281       O286   2.034       .  S
Zn281       O288   2.047       .  S
Zn281       O292   2.073       .  S
Zn282       O284   1.981       .  S
Zn282       O287   2.025       .  S
Zn282       O290   2.027       .  S
Zn282       O293   2.073       .  S
Zn283       O284   1.950       .  S
Zn283       O291   1.994       .  S
Zn283       O294   1.984       .  S
Zn283       O295   1.996       .  S
O285        C297   1.275       .  A
O286        C298   1.275       .  A
O287        C299   1.274       .  A
O288        C297   1.276       .  A
O289        C299   1.275       .  A
O290        C298   1.274       .  A
O291        C300   1.269       .  A
O292        C301   1.278       .  A
O293        C300   1.277       .  A
O294        C301   1.269       .  A
O295        C302   1.269       .  A
O296        C302   1.278       .  A
C300        C750   1.481       .  S
C301        C961   1.481       .  S
C302        C737   1.486       .  S
Zn303       O307   2.017       .  S
Zn303       O308   2.059       .  S
Zn303       O312   2.057       .  S
Zn303       O319   2.058       .  S
Zn304       O307   1.943       .  S
Zn304       O309   2.020       .  S
Zn304       O311   1.980       .  S
Zn304       O315   2.021       .  S
Zn305       O307   1.965       .  S
Zn305       O310   2.032       .  S
Zn305       O313   2.050       .  S
Zn305       O316   2.052       .  S
Zn306       O307   1.954       .  S
Zn306       O314   2.009       .  S
Zn306       O317   2.048       .  S
Zn306       O318   2.003       .  S
O308        C320   1.276       .  A
O309        C321   1.274       .  A
O310        C322   1.280       .  A
O311        C320   1.273       .  A
O312        C322   1.277       .  A
O313        C321   1.275       .  A
O314        C323   1.269       .  A
O315        C324   1.270       .  A
O316        C323   1.277       .  A
O317        C324   1.275       .  A
O318        C325   1.276       .  A
O319        C325   1.276       .  A
C321        C702   1.500       .  S
C323        C814   1.508       .  S
C324        C718   1.506       .  S
Zn326       O330   2.009       .  S
Zn326       O331   2.052       .  S
Zn326       O335   2.050       .  S
Zn326       O342   2.058       .  S
Zn327       O330   1.956       .  S
Zn327       O332   2.040       .  S
Zn327       O334   2.016       .  S
Zn327       O338   2.032       .  S
Zn328       O330   1.944       .  S
Zn328       O333   1.978       .  S
Zn328       O336   2.006       .  S
Zn328       O339   2.022       .  S
Zn329       O330   1.943       .  S
Zn329       O337   2.023       .  S
Zn329       O340   2.021       .  S
Zn329       O341   1.986       .  S
O331        C343   1.277       .  A
O332        C344   1.276       .  A
O333        C345   1.273       .  A
O334        C343   1.278       .  A
O335        C345   1.275       .  A
O336        C344   1.269       .  A
O337        C346   1.270       .  A
O338        C347   1.273       .  A
O339        C346   1.273       .  A
O340        C347   1.274       .  A
O341        C348   1.274       .  A
O342        C348   1.276       .  A
C344        C686   1.504       .  S
C346        C670   1.505       .  S
C347        C865   1.499       .  S
C349       C1329   1.471       .  S
C349        N350   1.348       .  A
C349        N354   1.344       .  A
N350        C351   1.356       .  A
C351        C383   1.472       .  S
C351        N352   1.369       .  A
N352        C353   1.369       .  A
C353        C413   1.469       .  S
C353        N354   1.353       .  A
C355       C1102   1.468       .  S
C355        N356   1.345       .  A
C355        N360   1.350       .  A
N356        C357   1.355       .  A
C357        C378   1.471       .  S
C357        N358   1.368       .  A
N358        C359   1.369       .  A
C359        C476   1.473       .  S
C359        N360   1.358       .  A
Zn361       O365   2.012       .  S
Zn361       O366   2.060       .  S
Zn361       O370   2.057       .  S
Zn361       O377   2.058       .  S
Zn362       O365   1.937       .  S
Zn362       O367   2.006       .  S
Zn362       O369   1.978       .  S
Zn362       O373   2.029       .  S
Zn363       O365   1.955       .  S
Zn363       O368   2.009       .  S
Zn363       O371   2.031       .  S
Zn363       O374   2.015       .  S
Zn364       O365   1.952       .  S
Zn364       O372   2.021       .  S
Zn364       O375   2.040       .  S
Zn364       O376   1.992       .  S
O366        C378   1.276       .  A
O367        C379   1.268       .  A
O368        C380   1.275       .  A
O369        C378   1.273       .  A
O370        C380   1.277       .  A
O371        C379   1.274       .  A
O372        C381   1.270       .  A
O373        C382   1.274       .  A
O374        C381   1.274       .  A
O375        C382   1.272       .  A
O376        C383   1.276       .  A
O377        C383   1.277       .  A
C379        C654   1.500       .  S
C380        C386   1.477       .  S
C381        C689   1.503       .  S
C382        C878   1.506       .  S
C384       C1233   1.480       .  S
C384        N385   1.355       .  A
C384        N389   1.350       .  A
N385        C386   1.360       .  A
C386        N387   1.367       .  A
N387        C388   1.365       .  A
C388        C451   1.462       .  S
C388        N389   1.352       .  A
C390       C1185   1.475       .  S
C390        N391   1.348       .  A
C390        N395   1.347       .  A
N391        C392   1.356       .  A
C392        C418   1.469       .  S
C392        N393   1.368       .  A
N393        C394   1.368       .  A
C394        C474   1.472       .  S
C394        N395   1.358       .  A
Zn396       O400   2.018       .  S
Zn396       O401   2.042       .  S
Zn396       O405   2.049       .  S
Zn396       O412   2.045       .  S
Zn397       O400   1.952       .  S
Zn397       O402   2.024       .  S
Zn397       O404   1.994       .  S
Zn397       O408   2.047       .  S
Zn398       O400   1.959       .  S
Zn398       O403   2.027       .  S
Zn398       O406   2.047       .  S
Zn398       O409   2.047       .  S
Zn399       O400   1.942       .  S
Zn399       O407   2.016       .  S
Zn399       O410   2.024       .  S
Zn399       O411   1.988       .  S
O401        C413   1.274       .  A
O402        C414   1.275       .  A
O403        C415   1.279       .  A
O404        C413   1.276       .  A
O405        C415   1.275       .  A
O406        C414   1.274       .  A
O407        C416   1.270       .  A
O408        C417   1.273       .  A
O409        C416   1.277       .  A
O410        C417   1.274       .  A
O411        C418   1.274       .  A
O412        C418   1.274       .  A
C414        C830   1.507       .  S
C415        C423   1.479       .  S
C416        C641   1.507       .  S
C417        C721   1.505       .  S
C419       C1137   1.469       .  S
C419        N420   1.351       .  A
C419        N424   1.348       .  A
N420        C421   1.355       .  A
C421        C450   1.468       .  S
C421        N422   1.371       .  A
N422        C423   1.370       .  A
C423        N424   1.353       .  A
C425       C1313   1.476       .  S
C425        N426   1.349       .  A
C425        N430   1.354       .  A
N426        C427   1.355       .  A
C427        C475   1.472       .  S
C427        N428   1.364       .  A
N428        C429   1.365       .  A
C429        C453   1.462       .  S
C429        N430   1.358       .  A
Zn431       O435   1.981       .  S
Zn431       O436   2.066       .  S
Zn431       O440   2.043       .  S
Zn431       O447   2.025       .  S
Zn432       O435   1.952       .  S
Zn432       O437   2.003       .  S
Zn432       O439   1.995       .  S
Zn432       O443   1.997       .  S
Zn433       O435   1.975       .  S
Zn433       O438   2.030       .  S
Zn433       O441   2.066       .  S
Zn433       O444   2.016       .  S
Zn434       O435   1.981       .  S
Zn434       O442   2.036       .  S
Zn434       O445   2.068       .  S
Zn434       O446   2.024       .  S
O436        C448   1.277       .  A
O437        C449   1.271       .  A
O438        C450   1.275       .  A
O439        C448   1.270       .  A
O440        C450   1.276       .  A
O441        C449   1.277       .  A
O442        C451   1.276       .  A
O443        C452   1.270       .  A
O444        C451   1.273       .  A
O445        C452   1.277       .  A
O446        C453   1.274       .  A
O447        C453   1.274       .  A
C448        C974   1.482       .  S
C449        C625   1.481       .  S
C452        C753   1.481       .  S
Zn454       O458   1.959       .  S
Zn454       O459   2.025       .  S
Zn454       O463   2.042       .  S
Zn454       O470   2.003       .  S
Zn455       O458   1.947       .  S
Zn455       O460   2.034       .  S
Zn455       O462   2.012       .  S
Zn455       O466   1.990       .  S
Zn456       O458   1.933       .  S
Zn456       O461   2.005       .  S
Zn456       O464   2.012       .  S
Zn456       O467   1.971       .  S
Zn457       O458   2.009       .  S
Zn457       O465   2.068       .  S
Zn457       O468   2.058       .  S
Zn457       O469   2.054       .  S
O459        C471   1.271       .  A
O460        C472   1.272       .  A
O461        C473   1.268       .  A
O462        C471   1.274       .  A
O463        C473   1.275       .  A
O464        C472   1.272       .  A
O465        C474   1.277       .  A
O466        C475   1.274       .  A
O467        C474   1.271       .  A
O468        C475   1.277       .  A
O469        C476   1.277       .  A
O470        C476   1.276       .  A
C471        C929   1.500       .  S
C472        C785   1.501       .  S
C473        C606   1.502       .  S
C477       C1246   1.465       .  S
C477        N478   1.352       .  A
C477        N482   1.345   1_565  A
N478        C479   1.355       .  A
C479        C528   1.463       .  S
C479        N480   1.368   1_565  A
N480        C481   1.368       .  A
C481        C601   1.469       .  S
C481        N482   1.351       .  A
C483       C1201   1.474       .  S
C483        N484   1.348   1_545  A
C483        N488   1.348       .  A
N484        C485   1.357       .  A
C485        C579   1.473       .  S
C485        N486   1.368       .  A
N486        C487   1.368   1_565  A
C487        C552   1.470       .  S
C487        N488   1.356       .  A
C489       C1150   1.468       .  S
C489        N490   1.348       .  A
C489        N494   1.346   1_655  A
N490        C491   1.357       .  A
C491        C547   1.475       .  S
C491        N492   1.371   1_655  A
N492        C493   1.370       .  A
C493        C604   1.472       .  S
C493        N494   1.354       .  A
C495       C1070   1.481       .  S
C495        N496   1.353   1_655  A
C495        N500   1.351   1_565  A
N496        C497   1.355       .  A
C497        C525   1.460       .  S
C497        N498   1.366   1_455  A
N498        C499   1.364   1_565  A
C499        C549   1.474       .  S
C499        N500   1.356       .  A
C501       C1089   1.469       .  S
C501        N502   1.351       .  A
C501        N506   1.351   1_455  A
N502        C503   1.353       .  A
C503        C527   1.462       .  S
C503        N504   1.367       .  A
N504        C505   1.367   1_455  A
C505        C578   1.476       .  S
C505        N506   1.357       .  A
Zn507       O511   1.949       .  S
Zn507       O512   1.991       .  S
Zn507       O516   2.001       .  S
Zn507       O523   2.003       .  S
Zn508       O511   1.983       .  S
Zn508       O513   2.026       .  S
Zn508       O515   2.073       .  S
Zn508       O519   2.034       .  S
Zn509       O511   1.976       .  S
Zn509       O514   2.066       .  S
Zn509       O517   2.019       .  S
Zn509       O520   2.028       .  S
Zn510       O511   1.976       .  S
Zn510       O518   2.022       .  S
Zn510       O521   2.021       .  S
Zn510       O522   2.064       .  S
O512        C524   1.269       .  A
O513        C525   1.275       .  A
O514        C526   1.277       .  A
O515        C524   1.278       .  A
O516        C526   1.270       .  A
O517        C525   1.273       .  A
O518        C527   1.273       .  A
O519        C528   1.275       .  A
O520        C527   1.274       .  A
O521        C528   1.274       .  A
O522        C529   1.277       .  A
O523        C529   1.271       .  A
C524        C705   1.484       .  S
C526        C801   1.482       .  S
C529        C638   1.481       .  S
Zn530       O534   2.011       .  S
Zn530       O535   2.061       .  S
Zn530       O539   2.061       .  S
Zn530       O546   2.054       .  S
Zn531       O534   1.950       .  S
Zn531       O536   2.039       .  S
Zn531       O538   1.998       .  S
Zn531       O542   2.019       .  S
Zn532       O534   1.937       .  S
Zn532       O537   1.988       .  S
Zn532       O540   2.007       .  S
Zn532       O543   2.013       .  S
Zn533       O534   1.953       .  S
Zn533       O541   2.028       .  S
Zn533       O544   2.025       .  S
Zn533       O545   1.990       .  S
O535        C547   1.277       .  A
O536        C548   1.275       .  A
O537        C549   1.273       .  A
O538        C547   1.276       .  A
O539        C549   1.277       .  A
O540        C548   1.269       .  A
O541        C550   1.271       .  A
O542        C551   1.274       .  A
O543        C550   1.273       .  A
O544        C551   1.271       .  A
O545        C552   1.275       .  A
O546        C552   1.277       .  A
C548        C849   1.503       .  S
C550        C673   1.504       .  S
C551        C657   1.501       .  S
C553       C1022   1.472       .  S
C553        N554   1.346   1_545  A
C553        N558   1.350   1_655  A
N554        C555   1.355       .  A
C555        C577   1.475       .  S
C555        N556   1.368   1_665  A
N556        C557   1.371       .  A
C557        C599   1.473       .  S
C557        N558   1.357       .  A
Zn559       O563   1.956       .  S
Zn559       O564   2.030       .  S
Zn559       O568   2.009       .  S
Zn559       O575   2.028       .  S
Zn560       O563   1.939       .  S
Zn560       O565   1.978       .  S
Zn560       O567   2.018       .  S
Zn560       O571   2.011       .  S
Zn561       O563   2.014       .  S
Zn561       O566   2.060       .  S
Zn561       O569   2.072       .  S
Zn561       O572   2.063       .  S
Zn562       O563   1.952       .  S
Zn562       O570   1.988       .  S
Zn562       O573   2.033       .  S
Zn562       O574   2.019       .  S
O564        C576   1.275       .  A
O565        C577   1.273       .  A
O566        C578   1.279       .  A
O567        C576   1.270       .  A
O568        C578   1.277       .  A
O569        C577   1.277       .  A
O570        C579   1.274       .  A
O571        C580   1.272       .  A
O572        C579   1.278       .  A
O573        C580   1.272       .  A
O574        C581   1.274       .  A
O575        C581   1.271       .  A
C576        C897   1.504       .  S
C580        C769   1.497       .  S
C581        C609   1.500       .  S
Zn582       O586   2.017       .  S
Zn582       O587   2.045       .  S
Zn582       O591   2.033       .  S
Zn582       O598   2.050       .  S
Zn583       O586   1.950       .  S
Zn583       O588   2.036       .  S
Zn583       O590   2.008       .  S
Zn583       O594   2.025       .  S
Zn584       O586   1.956       .  S
Zn584       O589   2.008       .  S
Zn584       O592   2.046       .  S
Zn584       O595   2.050       .  S
Zn585       O586   1.944       .  S
Zn585       O593   2.019       .  S
Zn585       O596   2.021       .  S
Zn585       O597   1.992       .  S
O587        C599   1.275       .  A
O588        C600   1.275       .  A
O589        C601   1.278       .  A
O590        C599   1.277       .  A
O591        C601   1.274       .  A
O592        C600   1.274       .  A
O593        C602   1.270       .  A
O594        C603   1.272       .  A
O595        C602   1.277       .  A
O596        C603   1.274       .  A
O597        C604   1.274       .  A
O598        C604   1.274       .  A
C600        C734   1.505       .  S
C602        C622   1.508       .  S
C603        C942   1.500       .  S
C605        C606   1.409       .  A
C605        C610   1.413       .  A
C605        H612   1.082       .  S
C606        C607   1.428       .  A
C607        C608   1.408       .  A
C607        C614   1.525       .  S
C608        C609   1.406       .  A
C608        H613   1.081       .  S
C609        C610   1.422       .  A
C610        C611   1.520       .  S
C611        F615   1.385       .  S
C611        F616   1.383       .  S
C611        F617   1.384       .  S
C614        F618   1.384       .  S
C614        F619   1.383       .  S
C614        F620   1.385       .  S
C621        C622   1.413       .  A
C621        C626   1.413       .  A
C621        H628   1.082       .  S
C622        C623   1.433       .  A
C623        C624   1.410       .  A
C623        C630   1.523       .  S
C624        C625   1.397       .  A
C624        H629   1.083       .  S
C625        C626   1.412       .  A
C626        C627   1.517       .  S
C627        F631   1.385       .  S
C627        F632   1.382       .  S
C627        F633   1.383       .  S
C630        F634   1.383       .  S
C630        F635   1.383       .  S
C630        F636   1.385       .  S
C637        C638   1.399       .  A
C637        C642   1.411       .  A
C637        H644   1.083       .  S
C638        C639   1.411       .  A
C639        C640   1.411       .  A
C639        C646   1.516       .  S
C640        C641   1.412       .  A
C640        H645   1.082       .  S
C641        C642   1.432       .  A
C642        C643   1.522       .  S
C643        F647   1.385       .  S
C643        F648   1.383       .  S
C643        F649   1.383       .  S
C646        F650   1.383       .  S
C646        F651   1.383       .  S
C646        F652   1.385       .  S
C653        C654   1.408       .  A
C653        C658   1.411       .  A
C653        H660   1.083       .  S
C654        C655   1.426       .  A
C655        C656   1.407       .  A
C655        C662   1.524       .  S
C656        C657   1.407       .  A
C656        H661   1.081       .  S
C657        C658   1.424       .  A
C658        C659   1.520       .  S
C659        F663   1.385       .  S
C659        F664   1.383       .  S
C659        F665   1.382       .  S
C662        F666   1.383       .  S
C662        F667   1.384       .  S
C662        F668   1.385       .  S
C669        C670   1.410       .  A
C669        C674   1.412       .  A
C669        H676   1.082       .  S
C670        C671   1.426       .  A
C671        C672   1.408       .  A
C671        C678   1.523       .  S
C672        C673   1.409       .  A
C672        H677   1.081       .  S
C673        C674   1.424       .  A
C674        C675   1.521       .  S
C675        F679   1.385       .  S
C675        F680   1.382       .  S
C675        F681   1.384       .  S
C678        F682   1.383       .  S
C678        F683   1.384       .  S
C678        F684   1.385       .  S
C685        C686   1.409       .  A
C685        C690   1.412       .  A
C685        H692   1.082       .  S
C686        C687   1.428       .  A
C687        C688   1.407       .  A
C687        C694   1.525       .  S
C688        C689   1.407       .  A
C688        H693   1.081       .  S
C689        C690   1.425       .  A
C690        C691   1.522       .  S
C691        F695   1.385       .  S
C691        F696   1.383       .  S
C691        F697   1.384       .  S
C694        F698   1.384       .  S
C694        F699   1.383       .  S
C694        F700   1.385       .  S
C701        C702   1.408       .  A
C701        C706   1.406       .  A
C701        H708   1.081       .  S
C702        C703   1.423       .  A
C703        C704   1.416       .  A
C703        C710   1.517       .  S
C704        C705   1.404       .  A
C704        H709   1.083       .  S
C705        C706   1.416       .  A
C706        C707   1.522       .  S
C707        F711   1.384       .  S
C707        F712   1.382       .  S
C707        F713   1.384       .  S
C710        F714   1.382       .  S
C710        F715   1.384       .  S
C710        F716   1.385       .  S
C717        C718   1.410       .  A
C717        C722   1.416       .  A
C717        H724   1.082       .  S
C718        C719   1.427       .  A
C719        C720   1.409       .  A
C719        C726   1.523       .  S
C720        C721   1.406       .  A
C720        H725   1.081       .  S
C721        C722   1.423       .  A
C722        C723   1.519       .  S
C723        F727   1.385       .  S
C723        F728   1.382       .  S
C723        F729   1.384       .  S
C726        F730   1.382       .  S
C726        F731   1.383       .  S
C726        F732   1.385       .  S
C733        C734   1.409       .  A
C733        C738   1.408       .  A
C733        H740   1.083       .  S
C734        C735   1.427       .  A
C735        C736   1.417       .  A
C735        C742   1.517       .  S
C736        C737   1.402       .  A
C736        H741   1.083       .  S
C737        C738   1.415       .  A
C738        C739   1.518       .  S
C739        F743   1.384       .  S
C739        F744   1.381       .  S
C739        F745   1.384       .  S
C742        F746   1.382       .  S
C742        F747   1.384       .  S
C742        F748   1.385       .  S
C749        C750   1.403       .  A
C749        C754   1.411       .  A
C749        H756   1.083       .  S
C750        C751   1.417       .  A
C751        C752   1.410       .  A
C751        C758   1.517       .  S
C752        C753   1.403       .  A
C752        H757   1.083       .  S
C753        C754   1.414       .  A
C754        C755   1.513       .  S
C755        F759   1.384       .  S
C755        F760   1.382       .  S
C755        F761   1.382       .  S
C758        F762   1.383       .  S
C758        F763   1.382       .  S
C758        F764   1.385       .  S
C765        C766   1.410       .  A
C765        C770   1.413       .  A
C765        H772   1.083       .  S
C766        C767   1.427       .  A
C767        C768   1.406       .  A
C767        C774   1.524       .  S
C768        C769   1.404       .  A
C768        H773   1.080       .  S
C769        C770   1.420       .  A
C770        C771   1.518       .  S
C771        F775   1.385       .  S
C771        F776   1.382       .  S
C771        F777   1.384       .  S
C774        F778   1.384       .  S
C774        F779   1.382       .  S
C774        F780   1.385       .  S
C781        C782   1.411       .  A
C781        C786   1.411       .  A
C781        H788   1.083       .  S
C782        C783   1.427       .  A
C783        C784   1.409       .  A
C783        C790   1.523       .  S
C784        C785   1.408       .  A
C784        H789   1.082       .  S
C785        C786   1.421       .  A
C786        C787   1.520       .  S
C787        F791   1.385       .  S
C787        F792   1.383       .  S
C787        F793   1.384       .  S
C790        F794   1.383       .  S
C790        F795   1.384       .  S
C790        F796   1.385       .  S
C797        C798   1.413       .  A
C797        C802   1.410       .  A
C797        H804   1.082       .  S
C798        C799   1.428       .  A
C799        C800   1.413       .  A
C799        C806   1.518       .  S
C800        C801   1.400       .  A
C800        H805   1.083       .  S
C801        C802   1.412       .  A
C802        C803   1.519       .  S
C803        F807   1.385       .  S
C803        F808   1.383       .  S
C803        F809   1.384       .  S
C806        F810   1.383       .  S
C806        F811   1.384       .  S
C806        F812   1.385       .  S
C813        C814   1.409       .  A
C813        C818   1.415       .  A
C813        H820   1.082       .  S
C814        C815   1.429       .  A
C815        C816   1.410       .  A
C815        C822   1.525       .  S
C816        C817   1.407       .  A
C816        H821   1.081       .  S
C817        C818   1.426       .  A
C818        C819   1.521       .  S
C819        F823   1.385       .  S
C819        F824   1.383       .  S
C819        F825   1.383       .  S
C822        F826   1.384       .  S
C822        F827   1.384       .  S
C822        F828   1.385       .  S
C829        C830   1.409       .  A
C829        C834   1.410       .  A
C829        H836   1.081       .  S
C830        C831   1.424       .  A
C831        C832   1.413       .  A
C831        C838   1.518       .  S
C832        C833   1.408       .  A
C832        H837   1.082       .  S
C833        C834   1.427       .  A
C834        C835   1.524       .  S
C835        F839   1.385       .  S
C835        F840   1.383       .  S
C835        F841   1.383       .  S
C838        F842   1.383       .  S
C838        F843   1.383       .  S
C838        F844   1.385       .  S
C845        C846   1.396       .  A
C845        C850   1.406       .  A
C845        H852   1.083       .  S
C846        C847   1.412       .  A
C847        C848   1.412       .  A
C847        C854   1.518       .  S
C848        C849   1.413       .  A
C848        H853   1.083       .  S
C849        C850   1.431       .  A
C850        C851   1.523       .  S
C851        F855   1.385       .  S
C851        F856   1.384       .  S
C851        F857   1.382       .  S
C854        F858   1.382       .  S
C854        F859   1.382       .  S
C854        F860   1.385       .  S
C861        C862   1.401       .  A
C861        C866   1.413       .  A
C861        H868   1.083       .  S
C862        C863   1.413       .  A
C863        C864   1.407       .  A
C863        C870   1.519       .  S
C864        C865   1.410       .  A
C864        H869   1.082       .  S
C865        C866   1.425       .  A
C866        C867   1.518       .  S
C867        F871   1.385       .  S
C867        F872   1.383       .  S
C867        F873   1.384       .  S
C870        F874   1.382       .  S
C870        F875   1.383       .  S
C870        F876   1.385       .  S
C877        C878   1.410       .  A
C877        C882   1.407       .  A
C877        H884   1.082       .  S
C878        C879   1.428       .  A
C879        C880   1.417       .  A
C879        C886   1.518       .  S
C880        C881   1.402       .  A
C880        H885   1.083       .  S
C881        C882   1.414       .  A
C882        C883   1.518       .  S
C883        F887   1.385       .  S
C883        F888   1.384       .  S
C883        F889   1.382       .  S
C886        F890   1.383       .  S
C886        F891   1.382       .  S
C886        F892   1.385       .  S
C893        C894   1.408       .  A
C893        C898   1.409       .  A
C893        H900   1.082       .  S
C894        C895   1.425       .  A
C895        C896   1.411       .  A
C895        C902   1.521       .  S
C896        C897   1.408       .  A
C896        H901   1.082       .  S
C897        C898   1.427       .  A
C898        C899   1.523       .  S
C899        F903   1.385       .  S
C899        F904   1.382       .  S
C899        F905   1.383       .  S
C902        F906   1.383       .  S
C902        F907   1.383       .  S
C902        F908   1.385       .  S
C909        C910   1.408       .  A
C909        C914   1.410       .  A
C909        H916   1.081       .  S
C910        C911   1.423       .  A
C911        C912   1.412       .  A
C911        C918   1.520       .  S
C912        C913   1.409       .  A
C912        H917   1.082       .  S
C913        C914   1.427       .  A
C914        C915   1.524       .  S
C915        F919   1.385       .  S
C915        F920   1.384       .  S
C915        F921   1.383       .  S
C918        F922   1.383       .  S
C918        F923   1.383       .  S
C918        F924   1.385       .  S
C925        C926   1.409       .  A
C925        C930   1.412       .  A
C925        H932   1.083       .  S
C926        C927   1.426       .  A
C927        C928   1.406       .  A
C927        C934   1.523       .  S
C928        C929   1.406       .  A
C928        H933   1.081       .  S
C929        C930   1.423       .  A
C930        C931   1.520       .  S
C931        F935   1.385       .  S
C931        F936   1.383       .  S
C931        F937   1.384       .  S
C934        F938   1.383       .  S
C934        F939   1.383       .  S
C934        F940   1.385       .  S
C941        C942   1.407       .  A
C941        C946   1.410       .  A
C941        H948   1.082       .  S
C942        C943   1.422       .  A
C943        C944   1.410       .  A
C943        C950   1.520       .  S
C944        C945   1.409       .  A
C944        H949   1.082       .  S
C945        C946   1.428       .  A
C946        C947   1.523       .  S
C947        F951   1.385       .  S
C947        F952   1.383       .  S
C947        F953   1.384       .  S
C950        F954   1.383       .  S
C950        F955   1.384       .  S
C950        F956   1.385       .  S
C957        C958   1.411       .  A
C957        C962   1.412       .  A
C957        H964   1.082       .  S
C958        C959   1.430       .  A
C959        C960   1.409       .  A
C959        C966   1.524       .  S
C960        C961   1.399       .  A
C960        H965   1.082       .  S
C961        C962   1.411       .  A
C962        C963   1.514       .  S
C963        F967   1.384       .  S
C963        F968   1.383       .  S
C963        F969   1.383       .  S
C966        F970   1.384       .  S
C966        F971   1.382       .  S
C966        F972   1.385       .  S
C973        C974   1.400       .  A
C973        C978   1.413       .  A
C973        H980   1.083       .  S
C974        C975   1.415       .  A
C975        C976   1.408       .  A
C975        C982   1.520       .  S
C976        C977   1.410       .  A
C976        H981   1.082       .  S
C977        C978   1.428       .  A
C978        C979   1.519       .  S
C979        F983   1.385       .  S
C979        F984   1.384       .  S
C979        F985   1.382       .  S
C982        F986   1.384       .  S
C982        F987   1.382       .  S
C982        F988   1.385       .  S
C989        C990   1.402   1_554  A
C989        C994   1.404       .  A
C989        H996   1.083       .  S
C990        C991   1.418       .  A
C991        C992   1.403       .  A
C991        C998   1.521       .  S
C992        C993   1.403   1_556  A
C992        H997   1.083       .  S
C993        C994   1.419       .  A
C994        C995   1.521       .  S
C995        F999   1.385       .  S
C995       F1000   1.382   1_565  S
C995       F1001   1.384       .  S
C998       F1002   1.384   1_565  S
C998       F1003   1.382       .  S
C998       F1004   1.385       .  S
C1005      C1006   1.403   1_655  A
C1005      C1010   1.402   1_556  A
C1005      H1012   1.083       .  S
C1006      C1007   1.419   1_556  A
C1007      C1008   1.402       .  A
C1007      C1014   1.521       .  S
C1008      C1009   1.402   1_455  A
C1008      H1013   1.083       .  S
C1009      C1010   1.417       .  A
C1010      C1011   1.520       .  S
C1011      F1015   1.385       .  S
C1011      F1016   1.384       .  S
C1011      F1017   1.382   1_554  S
C1014      F1018   1.383       .  S
C1014      F1019   1.383   1_554  S
C1014      F1020   1.385   1_554  S
C1021      C1022   1.401   1_455  A
C1021      C1026   1.402       .  A
C1021      H1028   1.083       .  S
C1022      C1023   1.418       .  A
C1023      C1024   1.405       .  A
C1023      C1030   1.520       .  S
C1024      C1025   1.401       .  A
C1024      H1029   1.083       .  S
C1025      C1026   1.418   1_655  A
C1026      C1027   1.521       .  S
C1027      F1031   1.385   1_545  S
C1027      F1032   1.384   1_545  S
C1027      F1033   1.383       .  S
C1030      F1034   1.382   1_545  S
C1030      F1035   1.384       .  S
C1030      F1036   1.385       .  S
C1037      C1038   1.404   1_456  A
C1037      C1042   1.402       .  A
C1037      H1044   1.083       .  S
C1038      C1039   1.419       .  A
C1039      C1040   1.405       .  A
C1039      C1046   1.522       .  S
C1040      C1041   1.408   1_655  A
C1040      H1045   1.082       .  S
C1041      C1042   1.422   1_554  A
C1042      C1043   1.522       .  S
C1043      F1047   1.385       .  S
C1043      F1048   1.383   1_556  S
C1043      F1049   1.383       .  S
C1046      F1050   1.383       .  S
C1046      F1051   1.384       .  S
C1046      F1052   1.383       .  S
C1053      C1054   1.404   1_565  A
C1053      C1058   1.403       .  A
C1053      H1060   1.084       .  S
C1054      C1055   1.421       .  A
C1055      C1056   1.405       .  A
C1055      C1062   1.522       .  S
C1056      C1057   1.404   1_545  A
C1056      H1061   1.083       .  S
C1057      C1058   1.419       .  A
C1058      C1059   1.521       .  S
C1059      F1063   1.385       .  S
C1059      F1064   1.382   1_556  S
C1059      F1065   1.384       .  S
C1062      F1066   1.383   1_556  S
C1062      F1067   1.383       .  S
C1062      F1068   1.385       .  S
C1069      C1070   1.407   1_455  A
C1069      C1074   1.407       .  A
C1069      H1076   1.083       .  S
C1070      C1071   1.421   1_565  A
C1071      C1072   1.400       .  A
C1071      C1078   1.521       .  S
C1072      C1073   1.401   1_645  A
C1072      H1077   1.083       .  S
C1073      C1074   1.417       .  A
C1074      C1075   1.520       .  S
C1075      F1079   1.385       .  S
C1075      F1080   1.382       .  S
C1075      F1081   1.384   1_455  S
C1078      F1082   1.383   1_655  S
C1078      F1083   1.383       .  S
C1078      F1084   1.385       .  S
C1085      C1086   1.406       .  A
C1085      C1090   1.401       .  A
C1085      H1092   1.083       .  S
C1086      C1087   1.421   1_455  A
C1087      C1088   1.405       .  A
C1087      C1094   1.521       .  S
C1088      C1089   1.401   1_655  A
C1088      H1093   1.083       .  S
C1089      C1090   1.413       .  A
C1090      C1091   1.520       .  S
C1091      F1095   1.385       .  S
C1091      F1096   1.382   1_455  S
C1091      F1097   1.383       .  S
C1094      F1098   1.383       .  S
C1094      F1099   1.383   1_655  S
C1094      F1100   1.385       .  S
C1101      C1102   1.399       .  A
C1101      C1106   1.403       .  A
C1101      H1108   1.083       .  S
C1102      C1103   1.414       .  A
C1103      C1104   1.402       .  A
C1103      C1110   1.520       .  S
C1104      C1105   1.405       .  A
C1104      H1109   1.083       .  S
C1105      C1106   1.421       .  A
C1106      C1107   1.521       .  S
C1107      F1111   1.385       .  S
C1107      F1112   1.383       .  S
C1107      F1113   1.383       .  S
C1110      F1114   1.382       .  S
C1110      F1115   1.383       .  S
C1110      F1116   1.385       .  S
C1117      C1118   1.401   1_455  A
C1117      C1122   1.404       .  A
C1117      H1124   1.084       .  S
C1118      C1119   1.414       .  A
C1119      C1120   1.404       .  A
C1119      C1126   1.520       .  S
C1120      C1121   1.406   1_655  A
C1120      H1125   1.083       .  S
C1121      C1122   1.420       .  A
C1122      C1123   1.520       .  S
C1123      F1127   1.385       .  S
C1123      F1128   1.382       .  S
C1123      F1129   1.383       .  S
C1126      F1130   1.382       .  S
C1126      F1131   1.384       .  S
C1126      F1132   1.385       .  S
C1133      C1134   1.402       .  A
C1133      C1138   1.401       .  A
C1133      H1140   1.083       .  S
C1134      C1135   1.419       .  A
C1135      C1136   1.403       .  A
C1135      C1142   1.521       .  S
C1136      C1137   1.401       .  A
C1136      H1141   1.083       .  S
C1137      C1138   1.416       .  A
C1138      C1139   1.520       .  S
C1139      F1143   1.385       .  S
C1139      F1144   1.384       .  S
C1139      F1145   1.381       .  S
C1142      F1146   1.384       .  S
C1142      F1147   1.383       .  S
C1142      F1148   1.385       .  S
C1149      C1150   1.401   1_455  A
C1149      C1154   1.401       .  A
C1149      H1156   1.084       .  S
C1150      C1151   1.415       .  A
C1151      C1152   1.403       .  A
C1151      C1158   1.519       .  S
C1152      C1153   1.404   1_655  A
C1152      H1157   1.083       .  S
C1153      C1154   1.420       .  A
C1154      C1155   1.522       .  S
C1155      F1159   1.385       .  S
C1155      F1160   1.384       .  S
C1155      F1161   1.383       .  S
C1158      F1162   1.384       .  S
C1158      F1163   1.382       .  S
C1158      F1164   1.384       .  S
C1165      C1166   1.405       .  A
C1165      C1170   1.401       .  A
C1165      H1172   1.083       .  S
C1166      C1167   1.420   1_455  A
C1167      C1168   1.402       .  A
C1167      C1174   1.521       .  S
C1168      C1169   1.400   1_655  A
C1168      H1173   1.084       .  S
C1169      C1170   1.412       .  A
C1170      C1171   1.519       .  S
C1171      F1175   1.385       .  S
C1171      F1176   1.382       .  S
C1171      F1177   1.384       .  S
C1174      F1178   1.382       .  S
C1174      F1179   1.384       .  S
C1174      F1180   1.385       .  S
C1181      C1182   1.405       .  A
C1181      C1186   1.406       .  A
C1181      H1188   1.083       .  S
C1182      C1183   1.417       .  A
C1183      C1184   1.402       .  A
C1183      C1190   1.520       .  S
C1184      C1185   1.402       .  A
C1184      H1189   1.083       .  S
C1185      C1186   1.418       .  A
C1186      C1187   1.520       .  S
C1187      F1191   1.385       .  S
C1187      F1192   1.384       .  S
C1187      F1193   1.382       .  S
C1190      F1194   1.384       .  S
C1190      F1195   1.383       .  S
C1190      F1196   1.384       .  S
C1197      C1198   1.402       .  A
C1197      C1202   1.404       .  A
C1197      H1204   1.083       .  S
C1198      C1199   1.417       .  A
C1199      C1200   1.403       .  A
C1199      C1206   1.521       .  S
C1200      C1201   1.403       .  A
C1200      H1205   1.083       .  S
C1201      C1202   1.417       .  A
C1202      C1203   1.519       .  S
C1203      F1207   1.385       .  S
C1203      F1208   1.384       .  S
C1203      F1209   1.382   1_545  S
C1206      F1210   1.384       .  S
C1206      F1211   1.382   1_545  S
C1206      F1212   1.384       .  S
C1213      C1214   1.405       .  A
C1213      C1218   1.404       .  A
C1213      H1220   1.083       .  S
C1214      C1215   1.421   1_545  A
C1215      C1216   1.403       .  A
C1215      C1222   1.522       .  S
C1216      C1217   1.400   1_565  A
C1216      H1221   1.083       .  S
C1217      C1218   1.415       .  A
C1218      C1219   1.520       .  S
C1219      F1223   1.385       .  S
C1219      F1224   1.382   1_545  S
C1219      F1225   1.383       .  S
C1222      F1226   1.383       .  S
C1222      F1227   1.384   1_565  S
C1222      F1228   1.385       .  S
C1229      C1230   1.399       .  A
C1229      C1234   1.401       .  A
C1229      H1236   1.083       .  S
C1230      C1231   1.417       .  A
C1231      C1232   1.406       .  A
C1231      C1238   1.520       .  S
C1232      C1233   1.405       .  A
C1232      H1237   1.083       .  S
C1233      C1234   1.421       .  A
C1234      C1235   1.520       .  S
C1235      F1239   1.384       .  S
C1235      F1240   1.383       .  S
C1235      F1241   1.383       .  S
C1238      F1242   1.383       .  S
C1238      F1243   1.384       .  S
C1238      F1244   1.385       .  S
C1245      C1246   1.397       .  A
C1245      C1250   1.399       .  A
C1245      H1252   1.094   1_565  S
C1246      C1247   1.417       .  A
C1247      C1248   1.401       .  A
C1247      C1254   1.520       .  S
C1248      C1249   1.403       .  A
C1248      H1253   1.091       .  S
C1249      C1250   1.420       .  A
C1250      C1251   1.515   1_565  S
C1251      F1255   1.385       .  S
C1251      F1256   1.381   1_545  S
C1251      F1257   1.383       .  S
C1254      F1258   1.383       .  S
C1254      F1259   1.382   1_565  S
C1254      F1260   1.384       .  S
C1261      C1262   1.404       .  A
C1261      C1266   1.398       .  A
C1261      H1268   1.083       .  S
C1262      C1263   1.421   1_565  A
C1263      C1264   1.405       .  A
C1263      C1270   1.520       .  S
C1264      C1265   1.401   1_545  A
C1264      H1269   1.084       .  S
C1265      C1266   1.413       .  A
C1266      C1267   1.516       .  S
C1267      F1271   1.385       .  S
C1267      F1272   1.381   1_565  S
C1267      F1273   1.383       .  S
C1270      F1274   1.382       .  S
C1270      F1275   1.383   1_545  S
C1270      F1276   1.385       .  S
C1277      C1278   1.402   1_554  A
C1277      C1282   1.402       .  A
C1277      H1284   1.083       .  S
C1278      C1279   1.418       .  A
C1279      C1280   1.403       .  A
C1279      C1286   1.521       .  S
C1280      C1281   1.402   1_556  A
C1280      H1285   1.084       .  S
C1281      C1282   1.417       .  A
C1282      C1283   1.521       .  S
C1283      F1287   1.385       .  S
C1283      F1288   1.384       .  S
C1283      F1289   1.382       .  S
C1286      F1290   1.382       .  S
C1286      F1291   1.384       .  S
C1286      F1292   1.385       .  S
C1293      C1294   1.406       .  A
C1293      C1298   1.403       .  A
C1293      H1300   1.083       .  S
C1294      C1295   1.418   1_554  A
C1295      C1296   1.402       .  A
C1295      C1302   1.522       .  S
C1296      C1297   1.407   1_556  A
C1296      H1301   1.082       .  S
C1297      C1298   1.422       .  A
C1298      C1299   1.523       .  S
C1299      F1303   1.385       .  S
C1299      F1304   1.383       .  S
C1299      F1305   1.383       .  S
C1302      F1306   1.383       .  S
C1302      F1307   1.384       .  S
C1302      F1308   1.383       .  S
C1309      C1310   1.400       .  A
C1309      C1314   1.402       .  A
C1309      H1316   1.084       .  S
C1310      C1311   1.418       .  A
C1311      C1312   1.405       .  A
C1311      C1318   1.521       .  S
C1312      C1313   1.403       .  A
C1312      H1317   1.083       .  S
C1313      C1314   1.419       .  A
C1314      C1315   1.520       .  S
C1315      F1319   1.385       .  S
C1315      F1320   1.382       .  S
C1315      F1321   1.384       .  S
C1318      F1322   1.384       .  S
C1318      F1323   1.383       .  S
C1318      F1324   1.384       .  S
C1325      C1326   1.402       .  A
C1325      C1330   1.400       .  A
C1325      H1332   1.084       .  S
C1326      C1327   1.417       .  A
C1327      C1328   1.401       .  A
C1327      C1334   1.521       .  S
C1328      C1329   1.403       .  A
C1328      H1333   1.083       .  S
C1329      C1330   1.419       .  A
C1330      C1331   1.522       .  S
C1331      F1335   1.385       .  S
C1331      F1336   1.383       .  S
C1331      F1337   1.384       .  S
C1334      F1338   1.384       .  S
C1334      F1339   1.382       .  S
C1334      F1340   1.385       .  S
C1341      C1342   1.405       .  A
C1341      C1346   1.404       .  A
C1341      H1348   1.083       .  S
C1342      C1343   1.420   1_554  A
C1343      C1344   1.402       .  A
C1343      C1350   1.522       .  S
C1344      C1345   1.404   1_556  A
C1344      H1349   1.083       .  S
C1345      C1346   1.417       .  A
C1346      C1347   1.521       .  S
C1347      F1351   1.385       .  S
C1347      F1352   1.383       .  S
C1347      F1353   1.384       .  S
C1350      F1354   1.383       .  S
C1350      F1355   1.383       .  S
C1350      F1356   1.385       .  S
C1357      C1358   1.402   1_556  A
C1357      C1362   1.401       .  A
C1357      H1364   1.083       .  S
C1358      C1359   1.417       .  A
C1359      C1360   1.403       .  A
C1359      C1366   1.521       .  S
C1360      C1361   1.406   1_554  A
C1360      H1365   1.083       .  S
C1361      C1362   1.421       .  A
C1362      C1363   1.521       .  S
C1363      F1367   1.384       .  S
C1363      F1368   1.383   1_556  S
C1363      F1369   1.383       .  S
C1366      F1370   1.382       .  S
C1366      F1371   1.384   1_554  S
C1366      F1372   1.385       .  S
