geometry optimzed in LAMMPS
_audit_creation_date              2020-11-30 
_audit_creation_method            'lammps2cif' 
_symmetry_space_group_name_H-M    'P1' 
_symmetry_Int_Tables_number       1 
_symmetry_cell_setting            triclinic 
loop_ 
_symmetry_equiv_pos_as_xyz 
  x,y,z 
_cell_length_a                    30.8351187813528 
_cell_length_b                    31.114171493229286 
_cell_length_c                    30.612644470016026 
_cell_angle_alpha                 73.34518086281915 
_cell_angle_beta                  92.59901472764584 
_cell_angle_gamma                 121.05344443431618 
loop_ 
_atom_site_label 
_atom_site_type_symbol 
_atom_site_fract_x 
_atom_site_fract_y 
_atom_site_fract_z 
_atom_site_charge 
Zr1        Zr  0.45368577  0.52270873  0.05278808     2.17510
O2          O  0.38537156  0.49034181  0.11320755    -0.52110
O3          O  0.47332351  0.61307363  0.03711472    -0.75310
O4          O  0.48009749  0.52367110  0.12907404    -0.82100
O5          O  0.36794685  0.50855093  0.95934872    -0.83840
O6          O  0.54574725  0.50937886  0.13711774    -0.79470
O7          O  0.36917384  0.50183982  0.03486939    -0.91100
O8          O  0.53993947  0.66621909  0.98002740    -0.77060
O9          O  0.54443209  0.57159481  0.03880004    -0.86550
O10         O  0.47415496  0.56513042  0.97186727    -0.86240
O11         O  0.47756384  0.45809963  0.07911322    -0.73000
O12         O  0.41317676  0.45340324  0.01783078    -0.85140
Zr13       Zr  0.55113512  0.48213309  0.94735394     2.26420
Zr14       Zr  0.56889705  0.50747466  0.06327777     2.06270
Zr15       Zr  0.43534859  0.49644168  0.93695741     2.10050
Zr16       Zr  0.56461107  0.61293169  0.95783615     1.78760
O17         O  0.36146310  0.41464449  0.93150407    -0.93940
O18         O  0.64046693  0.67501415  0.98456694    -0.41750
O19         O  0.52604069  0.54551117  0.92142144    -0.78380
O20         O  0.59135303  0.55109257  0.98259400    -0.97070
O21         O  0.53018374  0.43937473  0.02790432    -0.90370
O22         O  0.46037030  0.43329285  0.96142552    -0.93210
C23         C  0.50576790  0.65814622  0.00879384     1.00540
C24         C  0.34853745  0.50451028  0.99773065     1.13470
C25         C  0.51220630  0.51573664  0.15264605     1.04250
O26         O  0.64520618  0.58070589  0.07859981    -0.95370
O27         O  0.64111146  0.50415524  0.03849697    -0.91110
O28         O  0.62964648  0.48674842  0.97000621    -0.84260
C29         C  0.65495336  0.49583081  0.00424101     1.10890
O30         O  0.36578063  0.34664035  0.09977035    -0.97340
Zr31       Zr  0.43981265  0.39118817  0.04205287     1.88940
O32         O  0.53331795  0.39315754  0.96008446    -0.73990
O33         O  0.57441915  0.44027633  0.12343232    -0.53250
O34         O  0.45307326  0.34051822  0.11246234    -0.97930
O35         O  0.36238185  0.32529386  0.02005290    -0.55150
O36         O  0.46697701  0.34019015  0.01764273    -0.74510
C37         C  0.50090941  0.34806221  0.98846667     0.97840
O38         O  0.61943644  0.54208997  0.88416832    -0.63330
O39         O  0.41765155  0.54782467  0.87033195    -0.58130
O40         O  0.52129628  0.47069543  0.87412063    -0.94810
O41         O  0.46820496  0.50172717  0.86313247    -0.93240
O42         O  0.55346744  0.66379498  0.88624896    -0.93600
O43         O  0.63806904  0.66185910  0.89887945    -0.92380
C44         C  0.49524496  0.48688910  0.84847634     1.16680
H45         H  0.46093767  0.58795967  0.96107703     0.32620
H46         H  0.62794096  0.57037312  0.97511655     0.43470
H47         H  0.44591531  0.40792251  0.94468266     0.37000
H48         H  0.46657102  0.44028511  0.11156765     0.33480
H49         H  0.64551158  0.71002116  0.96824616     0.25270
H50         H  0.59470265  0.45837364  0.14548707     0.31210
H51         H  0.43706260  0.30452630  0.10990061     0.37120
H52         H  0.57088269  0.70023314  0.88799318     0.31580
H53         H  0.38040588  0.52647575  0.86956474     0.30450
H54         H  0.34906880  0.42502257  0.90236732     0.32130
H55         H  0.36062049  0.29153463  0.03466845     0.31100
H56         H  0.66396077  0.65443329  0.91302416     0.35100
H57         H  0.60445820  0.55822098  0.86081849     0.27830
H58         H  0.39687273  0.51809957  0.12825330     0.32070
H59         H  0.35555282  0.30911826  0.11079319     0.34920
H60         H  0.42309961  0.57860976  0.87865215     0.27530
H61         H  0.64284628  0.57143456  0.89607509     0.40400
H62         H  0.63305315  0.60084469  0.08830612     0.30450
H63         H  0.62974514  0.66838947  0.01699442     0.38070
H64         H  0.36970895  0.33242869  0.98677423     0.29920
H65         H  0.53947047  0.41579466  0.13991444     0.29980
H66         H  0.38432368  0.46020093  0.13666470     0.30250
Zr67       Zr  0.45086191  0.52391685  0.55022882     2.17510
O68         O  0.37419411  0.47359631  0.60547255    -0.52110
O69         O  0.47164906  0.61398256  0.53641739    -0.75310
O70         O  0.47848240  0.53103097  0.62532109    -0.82100
O71         O  0.36187265  0.50420397  0.45817650    -0.83840
O72         O  0.53788442  0.50825191  0.63498719    -0.79470
O73         O  0.37403530  0.52141070  0.52662341    -0.91100
O74         O  0.53681446  0.66622837  0.47802321    -0.77060
O75         O  0.54152543  0.57044370  0.53759362    -0.86550
O76         O  0.47274694  0.56624773  0.46951036    -0.86240
O77         O  0.47257009  0.45774373  0.57769966    -0.73000
O78         O  0.40940157  0.45527853  0.51486249    -0.85140
Zr79       Zr  0.54660279  0.47998234  0.44696222     2.26420
Zr80       Zr  0.56381180  0.50482861  0.56251346     2.06270
Zr81       Zr  0.43284138  0.49811572  0.43433131     2.10050
Zr82       Zr  0.56322129  0.61283274  0.45704974     1.78760
O83         O  0.35829981  0.42152772  0.42138154    -0.93940
O84         O  0.63640240  0.67400769  0.48708368    -0.41750
O85         O  0.52398495  0.54538052  0.42047847    -0.78380
O86         O  0.58845496  0.54952690  0.48174092    -0.97070
O87         O  0.52359877  0.43648828  0.52726313    -0.90370
O88         O  0.45574427  0.43296729  0.45964878    -0.93210
C89         C  0.50298989  0.65872111  0.50707139     1.00540
C90         C  0.34875213  0.51304377  0.49246843     1.13470
C91         C  0.50843989  0.52011423  0.65004071     1.04250
O92         O  0.64019465  0.58151517  0.57313874    -0.95370
O93         O  0.63179912  0.49254904  0.54164921    -0.91110
O94         O  0.62848261  0.49292681  0.46759508    -0.84260
C95         C  0.65003272  0.49294150  0.50438801     1.10890
O96         O  0.35644420  0.34874452  0.59434801    -0.97340
Zr97       Zr  0.43324041  0.39110659  0.54052368     1.88940
O98         O  0.52628916  0.38919063  0.46471488    -0.73990
O99         O  0.57366584  0.44307800  0.62559757    -0.53250
O100        O  0.44291078  0.34156385  0.61390290    -0.97930
O101        O  0.35753644  0.32527739  0.51650431    -0.55150
O102        O  0.45967024  0.33725608  0.52191667    -0.74510
C103        C  0.49405414  0.34463934  0.49381361     0.97840
O104        O  0.60657098  0.51232004  0.37927950    -0.63330
O105        O  0.42357613  0.55978969  0.37057440    -0.58130
O106        O  0.52318499  0.48124119  0.36997784    -0.94810
O107        O  0.46114711  0.50106915  0.36034841    -0.93240
O108        O  0.55807173  0.66559769  0.38335088    -0.93600
O109        O  0.63915584  0.66003976  0.40105303    -0.92380
C110        C  0.49346521  0.49264946  0.34552437     1.16680
H111        H  0.46012132  0.58959621  0.45859463     0.32620
H112        H  0.62507862  0.56832268  0.47488824     0.43470
H113        H  0.44126008  0.40785293  0.44265327     0.37000
H114        H  0.46118931  0.44041404  0.61019231     0.33480
H115        H  0.64583900  0.70941762  0.46665208     0.25270
H116        H  0.59822534  0.46494183  0.64347151     0.31210
H117        H  0.42656510  0.30503230  0.61261505     0.37120
H118        H  0.57990987  0.70253601  0.38361111     0.31580
H119        H  0.38762644  0.53981757  0.36481782     0.30450
H120        H  0.35023947  0.43538695  0.39084282     0.32130
H121        H  0.35571012  0.29153199  0.53141186     0.31100
H122        H  0.66415736  0.65230514  0.41696494     0.35100
H123        H  0.63856585  0.54303791  0.38306403     0.27830
H124        H  0.37124207  0.49998731  0.61481425     0.32070
H125        H  0.34566280  0.31111023  0.60661349     0.34920
H126        H  0.42551822  0.58649751  0.38335534     0.27530
H127        H  0.61470368  0.48486544  0.38198266     0.40400
H128        H  0.62762704  0.60085789  0.58368500     0.30450
H129        H  0.62236342  0.67161182  0.51673214     0.38070
H130        H  0.36597851  0.33268471  0.48336702     0.29920
H131        H  0.54066085  0.42158236  0.64569617     0.29980
H132        H  0.38205027  0.45390637  0.63291144     0.30250
Zr133      Zr  0.93150698  0.48722811  0.94321956     2.17510
O134        O  0.90424043  0.53353025  0.88104497    -0.52110
O135        O  0.86375404  0.39929646  0.94471385    -0.75310
O136        O  0.95405669  0.48639922  0.86805157    -0.82100
O137        O  0.86531247  0.50065563  0.03699952    -0.83840
O138        O  0.03265579  0.49656215  0.86681147    -0.79470
O139        O  0.85824222  0.48992145  0.96599005    -0.91100
O140        O  0.86981559  0.34056146  0.00474309    -0.77060
O141        O  0.96907097  0.43498194  0.96002135    -0.86550
O142        O  0.90804047  0.44038962  0.02322960    -0.86240
O143        O  0.02180134  0.54942415  0.92335329    -0.73000
O144        O  0.96462570  0.55351268  0.98161530    -0.85140
Zr145      Zr  0.07098967  0.51516742  0.06051067     2.26420
Zr146      Zr  0.05907471  0.49629190  0.94240208     2.06270
Zr147      Zr  0.94297087  0.50584369  0.06177153     2.10050
Zr148      Zr  0.94594545  0.38887011  0.03988518     1.78760
O149        O  0.94231323  0.57983417  0.07307845    -0.93940
O150        O  0.96373342  0.32945564  0.01839275    -0.41750
O151        O  0.98065162  0.45347178  0.07987577    -0.78380
O152        O  0.03661393  0.44832843  0.02253728    -0.97070
O153        O  0.09375547  0.56209038  0.98061235    -0.90370
O154        O  0.03266911  0.56683395  0.04364945    -0.93210
C155        C  0.84770724  0.35219114  0.97069280     1.00540
C156        C  0.84217869  0.49478034  0.00132330     1.13470
C157        C  0.99306537  0.49173725  0.84802362     1.04250
O158        O  0.05148188  0.41851534  0.93094722    -0.95370
O159        O  0.13537417  0.49842057  0.96834432    -0.91110
O160        O  0.14055990  0.50549556  0.03992827    -0.84260
C161        C  0.15671589  0.49986488  0.00525046     1.10890
O162        O  0.03478385  0.66423518  0.89902278    -0.97340
Zr163      Zr  0.05513577  0.61326489  0.96378691     1.88940
O164        O  0.14163295  0.60457634  0.05441899    -0.73990
O165        O  0.13359102  0.55894124  0.88518796    -0.53250
O166        O  0.12522838  0.66460948  0.90136342    -0.97930
O167        O  0.03907970  0.67459931  0.98395918    -0.55150
O168        O  0.13008603  0.66292079  0.99855260    -0.74510
C169        C  0.15481818  0.65175037  0.03004270     0.97840
O170        O  0.09250798  0.46598531  0.12624694    -0.63330
O171        O  0.87853782  0.44010546  0.12672558    -0.58130
O172        O  0.04949895  0.51770651  0.13521515    -0.94810
O173        O  0.97124962  0.50848597  0.13615747    -0.93240
O174        O  0.87719370  0.33535827  0.10345602    -0.93600
O175        O  0.96308176  0.33505535  0.10467199    -0.92380
C176        C  0.01059517  0.51274771  0.15504886     1.16680
H177        H  0.87144759  0.41809289  0.03100625     0.32620
H178        H  0.05224326  0.42751835  0.03092235     0.43470
H179        H  0.04433970  0.59085754  0.06166637     0.37000
H180        H  0.02949871  0.56842715  0.89091623     0.33480
H181        H  0.93427738  0.29372385  0.03380320     0.25270
H182        H  0.13285525  0.53941657  0.86440053     0.31210
H183        H  0.14560397  0.69996231  0.90550048     0.37120
H184        H  0.85787750  0.29997660  0.09927303     0.31580
H185        H  0.85865050  0.45554917  0.13143727     0.30450
H186        H  0.91797569  0.56415728  0.10115535     0.32130
H187        H  0.07166902  0.70900269  0.97381475     0.31100
H188        H  0.99213615  0.36086169  0.11670232     0.35100
H189        H  0.06085877  0.44250148  0.14820929     0.27830
H190        H  0.88270841  0.50774988  0.86479783     0.32070
H191        H  0.06301685  0.70139246  0.89265043     0.34920
H192        H  0.85510755  0.41039038  0.11513511     0.27530
H193        H  0.09665005  0.44108084  0.11541427     0.40400
H194        H  0.02173892  0.40458111  0.91382572     0.30450
H195        H  0.95978055  0.33539484  0.98532139     0.38070
H196        H  0.03581231  0.66432489  0.01791938     0.29920
H197        H  0.12571788  0.58524094  0.86652636     0.29980
H198        H  0.93538307  0.56053072  0.85914802     0.30250
Zr199      Zr  0.93085861  0.48723057  0.44230172     2.17510
O200        O  0.89850332  0.52747490  0.37992648    -0.52110
O201        O  0.86203636  0.39826479  0.44694712    -0.75310
O202        O  0.95728567  0.49141107  0.36607744    -0.82100
O203        O  0.86084050  0.49535288  0.53606113    -0.83840
O204        O  0.03695952  0.50432017  0.36454965    -0.79470
O205        O  0.86359252  0.50117370  0.46073743    -0.91100
O206        O  0.87461599  0.33919629  0.50065469    -0.77060
O207        O  0.97190668  0.43821499  0.45670678    -0.86550
O208        O  0.90710668  0.43627349  0.52148600    -0.86240
O209        O  0.02055706  0.55231755  0.42397361    -0.73000
O210        O  0.95939035  0.54949265  0.48449310    -0.85140
Zr211      Zr  0.06866585  0.51351839  0.56135752     2.26420
Zr212      Zr  0.06131601  0.50242967  0.44061194     2.06270
Zr213      Zr  0.93728137  0.49823183  0.56336892     2.10050
Zr214      Zr  0.94894163  0.38835824  0.53593275     1.78760
O215        O  0.94553530  0.57518575  0.57732542    -0.93940
O216        O  0.96700328  0.33137124  0.51020200    -0.41750
O217        O  0.97858608  0.44899253  0.57951750    -0.78380
O218        O  0.03899025  0.45046028  0.51979087    -0.97070
O219        O  0.09126410  0.56444968  0.48236095    -0.90370
O220        O  0.02661671  0.56168644  0.54723448    -0.93210
C221        C  0.84956222  0.35107749  0.47004964     1.00540
C222        C  0.84330510  0.49991271  0.49722815     1.13470
C223        C  0.99732254  0.49896503  0.34570867     1.04250
O224        O  0.06368868  0.43201965  0.42311333    -0.95370
O225        O  0.13781214  0.50548890  0.46605627    -0.91110
O226        O  0.14337183  0.51285690  0.53828340    -0.84260
C227        C  0.15998250  0.50936616  0.50238091     1.10890
O228        O  0.01283294  0.65884894  0.41832472    -0.97340
Zr229      Zr  0.04909943  0.61206009  0.46837174     1.88940
O230        O  0.14088845  0.60127677  0.55591995    -0.73990
O231        O  0.13554303  0.57347242  0.38594427    -0.53250
O232        O  0.10785327  0.66581664  0.39752947    -0.97930
O233        O  0.04594044  0.67685633  0.49586220    -0.55150
O234        O  0.12742991  0.65793478  0.50050468    -0.74510
C235        C  0.15428899  0.64786433  0.53024298     0.97840
O236        O  0.09053157  0.46285176  0.62517753    -0.63330
O237        O  0.86158353  0.43503063  0.61917874    -0.58130
O238        O  0.04462569  0.51322327  0.63662953    -0.94810
O239        O  0.96192216  0.49201154  0.63981974    -0.93240
O240        O  0.88082300  0.33206747  0.59993235    -0.93600
O241        O  0.96978962  0.33441072  0.59696518    -0.92380
C242        C  0.00299345  0.50148895  0.65784317     1.16680
H243        H  0.87056908  0.41292427  0.52893061     0.32620
H244        H  0.05605725  0.43101958  0.52704492     0.43470
H245        H  0.03711779  0.58420218  0.56657406     0.37000
H246        H  0.02828465  0.57266966  0.39187705     0.33480
H247        H  0.93632033  0.29563453  0.52254870     0.25270
H248        H  0.13934185  0.55710406  0.36417182     0.31210
H249        H  0.11843666  0.70254186  0.39458600     0.37120
H250        H  0.86272084  0.29687556  0.59535623     0.31580
H251        H  0.86239881  0.45369197  0.64082250     0.30450
H252        H  0.93259882  0.56321549  0.61022043     0.32130
H253        H  0.07776058  0.71074024  0.48089085     0.31100
H254        H  0.99606544  0.35956182  0.61151540     0.35100
H255        H  0.05847850  0.43779753  0.64642945     0.27830
H256        H  0.88083718  0.50180134  0.36266672     0.32070
H257        H  0.04052121  0.69638716  0.40691629     0.34920
H258        H  0.86849869  0.40771199  0.63719071     0.27530
H259        H  0.09615195  0.43995587  0.61249540     0.40400
H260        H  0.03161592  0.41346677  0.41000097     0.30450
H261        H  0.96574681  0.34099799  0.47663090     0.38070
H262        H  0.05067325  0.66848765  0.52876528     0.29920
H263        H  0.12448679  0.59725439  0.36784432     0.29980
H264        H  0.92899542  0.55770983  0.35881630     0.30250
Zr265      Zr  0.45586820  0.92713616  0.95859930     2.17510
O266        O  0.38610957  0.87169310  0.92152951    -0.52110
O267        O  0.48477327  0.86577052  0.96556375    -0.75310
O268        O  0.47771750  0.95535389  0.87528940    -0.82100
O269        O  0.35862575  0.85839105  0.06816582    -0.83840
O270        O  0.54801751  0.03814962  0.85267635    -0.79470
O271        O  0.37332408  0.85332142  0.99813558    -0.91100
O272        O  0.53754768  0.87630218  0.01994152    -0.77060
O273        O  0.54630580  0.97618981  0.95440131    -0.86550
O274        O  0.47305462  0.90897864  0.03627369    -0.86240
O275        O  0.47950020  0.01750141  0.92408452    -0.73000
O276        O  0.41438072  0.95463579  0.99909584    -0.85140
Zr277      Zr  0.54988877  0.07813538  0.03807394     2.26420
Zr278      Zr  0.57076840  0.06675403  0.92095859     2.06270
Zr279      Zr  0.43381482  0.93833126  0.07648411     2.10050
Zr280      Zr  0.56334940  0.95901134  0.03217492     1.78760
O281        O  0.36363060  0.94184254  0.10509584    -0.93940
O282        O  0.64107726  0.98182064  0.98960313    -0.41750
O283        O  0.52428942  0.98774745  0.07290798    -0.78380
O284        O  0.59046949  0.04966973  0.99807791    -0.97070
O285        O  0.53090948  0.09517374  0.96118192    -0.90370
O286        O  0.45922473  0.02856674  0.04331368    -0.93210
C287        C  0.51146961  0.85159720  0.99224102     1.00540
C288        C  0.34579023  0.83586367  0.03652589     1.13470
C289        C  0.51188581  0.99664649  0.84437063     1.04250
O290        O  0.64626510  0.07238795  0.89175046    -0.95370
O291        O  0.64462217  0.14753686  0.92960203    -0.91110
O292        O  0.62514739  0.15984612  0.99424555    -0.84260
C293        C  0.65490587  0.17381468  0.95828071     1.10890
O294        O  0.37066224  0.00929275  0.92075200    -0.97340
Zr295      Zr  0.44054702  0.04531941  0.96622365     1.88940
O296        O  0.52386066  0.14131004  0.03230757    -0.73990
O297        O  0.58088959  0.14128349  0.85809242    -0.53250
O298        O  0.45101097  0.10977239  0.89326307    -0.97930
O299        O  0.36183001  0.02085149  0.00857739    -0.55150
O300        O  0.46835456  0.12850335  0.97965583    -0.74510
C301        C  0.49620825  0.15455100  0.00609708     0.97840
O302        O  0.62461572  0.10648193  0.07925490    -0.63330
O303        O  0.41669781  0.86412080  0.14346592    -0.58130
O304        O  0.52670656  0.05664732  0.11987000    -0.94810
O305        O  0.46955520  0.96880768  0.14245222    -0.93240
O306        O  0.55274501  0.89775860  0.10723924    -0.93600
O307        O  0.63346933  0.99041751  0.07820585    -0.92380
C308        C  0.49971495  0.01233897  0.15133812     1.16680
H309        H  0.45927634  0.87173374  0.05053576     0.32620
H310        H  0.62688848  0.06991831  0.99832727     0.43470
H311        H  0.44442721  0.03908923  0.06211127     0.37000
H312        H  0.46905563  0.02327239  0.89384469     0.33480
H313        H  0.65618210  0.96464503  0.01163842     0.25270
H314        H  0.60416132  0.14591727  0.83354481     0.31210
H315        H  0.43148806  0.12512771  0.89922919     0.37120
H316        H  0.57225403  0.88179435  0.10285427     0.31580
H317        H  0.38087582  0.84829702  0.15607855     0.30450
H318        H  0.34005551  0.90573507  0.12563328     0.32130
H319        H  0.34712248  0.03897171  0.98716444     0.31100
H320        H  0.65645221  0.02838192  0.06170266     0.35100
H321        H  0.61840933  0.07329647  0.10188109     0.27830
H322        H  0.40133447  0.86499333  0.89842464     0.32070
H323        H  0.35654868  0.03242316  0.91402401     0.34920
H324        H  0.41601409  0.83775736  0.13099294     0.27530
H325        H  0.65378358  0.11672027  0.05780938     0.40400
H326        H  0.63489686  0.03584202  0.89315210     0.30450
H327        H  0.62918222  0.96192427  0.96708784     0.38070
H328        H  0.37267237  0.03889703  0.03242016     0.29920
H329        H  0.54736303  0.12795750  0.84630944     0.29980
H330        H  0.37366930  0.89425148  0.90362744     0.30250
Zr331      Zr  0.45638217  0.93041316  0.45678510     2.17510
O332        O  0.38909016  0.90628250  0.40767278    -0.52110
O333        O  0.47233741  0.85907976  0.47093630    -0.75310
O334        O  0.48896474  0.94980320  0.37787848    -0.82100
O335        O  0.35641878  0.85985746  0.56310071    -0.83840
O336        O  0.54888713  0.03678136  0.35469966    -0.79470
O337        O  0.37425277  0.85470231  0.49407886    -0.91100
O338        O  0.53572595  0.87650284  0.51665198    -0.77060
O339        O  0.54660013  0.97822026  0.45400645    -0.86550
O340        O  0.47184866  0.91001196  0.53471989    -0.86240
O341        O  0.48188536  0.02093921  0.42280559    -0.73000
O342        O  0.41440011  0.95716596  0.49709105    -0.85140
Zr343      Zr  0.54851658  0.07798931  0.53918330     2.26420
Zr344      Zr  0.57238331  0.06869457  0.42161294     2.06270
Zr345      Zr  0.43162900  0.93826498  0.57472081     2.10050
Zr346      Zr  0.56208332  0.95863940  0.53187602     1.78760
O347        O  0.35906846  0.93842247  0.60269102    -0.93940
O348        O  0.63876982  0.97532705  0.49259448    -0.41750
O349        O  0.52245673  0.98721560  0.57251294    -0.78380
O350        O  0.59082054  0.05025705  0.49953369    -0.97070
O351        O  0.53205351  0.09743643  0.46157185    -0.90370
O352        O  0.45806622  0.02929125  0.54250127    -0.93210
C353        C  0.50253538  0.84761762  0.49455591     1.00540
C354        C  0.34474560  0.83766662  0.53115017     1.13470
C355        C  0.51960083  0.99277425  0.34640702     1.04250
O356        O  0.64817865  0.07327434  0.39465764    -0.95370
O357        O  0.64562302  0.15026382  0.42790787    -0.91110
O358        O  0.63009465  0.15328759  0.49851750    -0.84260
C359        C  0.65779061  0.17199448  0.45997774     1.10890
O360        O  0.37434730  0.01397490  0.41638108    -0.97760
Zr361      Zr  0.44176839  0.04804806  0.46455824     1.88940
O362        O  0.52073427  0.14031630  0.53296942    -0.73990
O363        O  0.58330860  0.14221097  0.35700437    -0.53250
O364        O  0.45648677  0.11522600  0.39214768    -0.97930
O365        O  0.36130474  0.02271279  0.50429417    -0.55150
O366        O  0.46502483  0.12814774  0.48101269    -0.74510
C367        C  0.49193251  0.15312293  0.50828831     0.97840
O368        O  0.60867386  0.12185107  0.58910670    -0.63330
O369        O  0.41825746  0.86437419  0.64023423    -0.58130
O370        O  0.52923266  0.04663538  0.62253771    -0.94810
O371        O  0.45906258  0.96366449  0.64386454    -0.93240
O372        O  0.54821416  0.89836181  0.60832170    -0.93600
O373        O  0.63421091  0.98907044  0.57595512    -0.92380
C374        C  0.49563193  0.00435004  0.65295434     1.16680
H375        H  0.45749183  0.87264941  0.54872000     0.32620
H376        H  0.62718788  0.06992169  0.50037366     0.43470
H377        H  0.44261845  0.03927352  0.56125977     0.37000
H378        H  0.47257152  0.02637237  0.39203974     0.33480
H379        H  0.64422648  0.94715620  0.51132337     0.25270
H380        H  0.60802688  0.14711978  0.33369603     0.31210
H381        H  0.43577680  0.12974579  0.39709051     0.37120
H382        H  0.56963947  0.88370588  0.60617080     0.31580
H383        H  0.38333296  0.84876865  0.65504682     0.30450
H384        H  0.34165419  0.90627544  0.62956922     0.32130
H385        H  0.34749584  0.04147004  0.48237517     0.31100
H386        H  0.65501146  0.02782511  0.56205534     0.35100
H387        H  0.63931297  0.12068440  0.58320879     0.27830
H388        H  0.38356694  0.87395758  0.40254345     0.32070
H389        H  0.36123995  0.03799955  0.40850895     0.34920
H390        H  0.41594381  0.83787936  0.62694467     0.27530
H391        H  0.61976524  0.15957207  0.57707946     0.40400
H392        H  0.63540358  0.03874906  0.38983048     0.30450
H393        H  0.62833110  0.96625367  0.46385726     0.38070
H394        H  0.37088967  0.03989370  0.52874068     0.29920
H395        H  0.55050524  0.12818364  0.34397828     0.29980
H396        H  0.40225041  0.93399710  0.37746826     0.30250
C397        C  0.54987971  0.01040793  0.76688779    -0.02620
C398        C  0.50767911  0.99751406  0.79562926     0.07060
C399        C  0.46164452  0.98731810  0.77713953    -0.02740
C400        C  0.45765017  0.98922475  0.73067413    -0.02740
C401        C  0.49982110  0.00208422  0.70195695     0.07190
C402        C  0.54597615  0.01261603  0.72030176    -0.02930
Br403      Br  0.60339144  0.02735577  0.68245217    -0.01480
Br404      Br  0.61269831  0.02317769  0.79162819    -0.01550
Br405      Br  0.39494206  0.97703710  0.70583337    -0.01510
Br406      Br  0.40480875  0.97474796  0.81416133    -0.01500
C407        C  0.55749263  0.03702984  0.26248379    -0.02620
C408        C  0.51839461  0.99347915  0.29680640     0.07060
C409        C  0.47478892  0.95557634  0.28211874    -0.02740
C410        C  0.46618804  0.96595137  0.23573093    -0.02740
C411        C  0.50485674  0.00966800  0.20120388     0.07190
C412        C  0.55023608  0.04615481  0.21550914    -0.02930
Br413      Br  0.60242556  0.11173775  0.17306597    -0.01480
Br414      Br  0.62457106  0.08093682  0.27850210    -0.01550
Br415      Br  0.39771307  0.92300700  0.22174377    -0.01510
Br416      Br  0.42951972  0.88511614  0.32212343    -0.01500
C417        C  0.22660645  0.69809876  0.57451718    -0.02620
C418        C  0.20436739  0.69414529  0.53307502     0.07060
C419        C  0.22914838  0.73761220  0.49295238    -0.02740
C420        C  0.26848882  0.78620164  0.49572430    -0.02740
C421        C  0.29359066  0.78972003  0.53523264     0.07190
C422        C  0.27245551  0.74513254  0.57493003    -0.02930
Br423      Br  0.30600612  0.74785365  0.62959072    -0.01480
Br424      Br  0.19624717  0.63988460  0.63053409    -0.01550
Br425      Br  0.28151875  0.84843569  0.44746912    -0.01510
Br426      Br  0.21628325  0.73021104  0.43238933    -0.01500
C427        C  0.75350270  0.22324194  0.44629209    -0.02620
C428        C  0.70760021  0.22127864  0.45390238     0.07060
C429        C  0.70922713  0.26353600  0.46378802    -0.02740
C430        C  0.75534019  0.30430651  0.47135471    -0.02740
C431        C  0.80138790  0.30727807  0.46262631     0.07190
C432        C  0.80050655  0.26703935  0.44930389    -0.02930
Br433      Br  0.86335426  0.27081529  0.43692181    -0.01480
Br434      Br  0.75208491  0.16445914  0.43540981    -0.01550
Br435      Br  0.75384176  0.35021809  0.50143144    -0.01510
Br436      Br  0.64834173  0.26631828  0.46577076    -0.01500
C437        C  0.96278595  0.44859376  0.78633377    -0.02620
C438        C  0.99381969  0.49427563  0.79933259     0.07060
C439        C  0.02797191  0.54230391  0.76591707    -0.02740
C440        C  0.03120129  0.54466635  0.71954456    -0.02740
C441        C  0.00144725  0.49866322  0.70665631     0.07190
C442        C  0.96689884  0.45067008  0.74006936    -0.02930
Br443      Br  0.92608088  0.38746232  0.72258156    -0.01480
Br444      Br  0.91564973  0.38305640  0.83213456    -0.01550
Br445      Br  0.07340505  0.61161398  0.67328942    -0.01510
Br446      Br  0.06902478  0.60537052  0.78356091    -0.01500
C447        C  0.97618162  0.46043012  0.23674477    -0.02620
C448        C  0.00923499  0.50941969  0.20384815     0.07060
C449        C  0.03731894  0.55513031  0.21736283    -0.02740
C450        C  0.03222435  0.55184685  0.26383671    -0.02740
C451        C  0.99905351  0.50284082  0.29674618     0.07190
C452        C  0.97107416  0.45714555  0.28317326    -0.02930
Br453      Br  0.92705486  0.38992510  0.32841635    -0.01480
Br454      Br  0.93891790  0.39759481  0.21810999    -0.01550
Br455      Br  0.06951281  0.61468139  0.28236984    -0.01510
Br456      Br  0.08159579  0.62219530  0.17200015    -0.01500
C457        C  0.24909786  0.69845818  0.03412261    -0.02620
C458        C  0.20270757  0.69668267  0.03758130     0.07060
C459        C  0.20316186  0.73967953  0.04522056    -0.02740
C460        C  0.24982771  0.78489081  0.04682935    -0.02740
C461        C  0.29590667  0.78606714  0.04360740     0.07190
C462        C  0.29479162  0.74144289  0.03994356    -0.02930
Br463      Br  0.35604122  0.73884346  0.04411049    -0.01480
Br464      Br  0.25208171  0.64670182  0.01405160    -0.01550
Br465      Br  0.25100465  0.84642730  0.05030415    -0.01510
Br466      Br  0.14015892  0.73730258  0.05288020    -0.01500
C467        C  0.79612669  0.26080807  0.96262399    -0.02620
C468        C  0.79980217  0.30843102  0.96134199     0.07060
C469        C  0.75670841  0.31327884  0.95224831    -0.02740
C470        C  0.71066335  0.27061535  0.94610479    -0.02740
C471        C  0.70595645  0.22183136  0.95207540     0.07190
C472        C  0.74907395  0.21730837  0.95933317    -0.02930
Br473      Br  0.74301815  0.15040570  0.96759748    -0.01480
Br474      Br  0.85550966  0.25484808  0.96742307    -0.01550
Br475      Br  0.65396230  0.27888603  0.92807926    -0.01510
Br476      Br  0.75803397  0.37606934  0.95213231    -0.01500
C477        C  0.49704390  0.73609306  0.46172095    -0.02620
C478        C  0.49890580  0.70474980  0.50473358     0.07060
C479        C  0.49674812  0.71779154  0.54473432    -0.02740
C480        C  0.49489746  0.76289782  0.54140145    -0.02740
C481        C  0.49829583  0.79707063  0.49790318     0.07190
C482        C  0.49835065  0.78287589  0.45811050    -0.02930
Br483      Br  0.50261244  0.82834370  0.39813202    -0.01480
Br484      Br  0.48900966  0.71335900  0.40781418    -0.01550
Br485      Br  0.48433191  0.77573660  0.59694400    -0.01510
Br486      Br  0.49847859  0.67548781  0.60411131    -0.01500
C487        C  0.52724303  0.23890025  0.52904970    -0.02620
C488        C  0.49030703  0.20056508  0.50924297     0.07060
C489        C  0.45256385  0.20976321  0.48757433    -0.02740
C490        C  0.45670190  0.25861970  0.47957978    -0.02740
C491        C  0.49568294  0.29758755  0.49604155     0.07190
C492        C  0.52980395  0.28712553  0.52207352    -0.02930
Br493      Br  0.57814442  0.33822819  0.55054810    -0.01480
Br494      Br  0.57173042  0.22566772  0.56978902    -0.01550
Br495      Br  0.40793496  0.27238685  0.44653856    -0.01510
Br496      Br  0.39032670  0.15461575  0.47380757    -0.01500
C497        C  0.25406931  0.46794590  0.49139136    -0.02620
C498        C  0.30061679  0.51272440  0.49373018     0.07060
C499        C  0.30048233  0.55568958  0.50064932    -0.02740
C500        C  0.25429885  0.55401152  0.50489255    -0.02740
C501        C  0.20793868  0.50945603  0.50216647     0.07190
C502        C  0.20793734  0.46638059  0.49553826    -0.02930
Br503      Br  0.14426884  0.40402603  0.49410725    -0.01480
Br504      Br  0.25284281  0.40731463  0.48507981    -0.01550
Br505      Br  0.25491215  0.61396065  0.51214637    -0.01510
Br506      Br  0.36375187  0.61823278  0.50217877    -0.01500
C507        C  0.73899558  0.52263998  0.52764098    -0.02620
C508        C  0.69974138  0.49500060  0.50262465     0.07060
C509        C  0.71006271  0.47292891  0.47275264    -0.02740
C510        C  0.75870774  0.48003591  0.46682929    -0.02740
C511        C  0.79599412  0.50278059  0.49538283     0.07190
C512        C  0.78620527  0.52583187  0.52451916    -0.02930
Br513      Br  0.83925846  0.56755818  0.55693584    -0.01480
Br514      Br  0.73057909  0.55914695  0.56506431    -0.01550
Br515      Br  0.77327458  0.46082228  0.41695252    -0.01510
Br516      Br  0.65710744  0.42850847  0.44183244    -0.01500
C517        C  0.54769839  0.51837455  0.72468625    -0.02620
C518        C  0.50720629  0.51729587  0.70003371     0.07060
C519        C  0.46328810  0.50645829  0.72522862    -0.02740
C520        C  0.45742308  0.49052965  0.77362645    -0.02740
C521        C  0.49769581  0.49141904  0.79826152     0.07190
C522        C  0.54208087  0.50307575  0.77318258    -0.02930
Br523      Br  0.59505424  0.49498517  0.80332861    -0.01480
Br524      Br  0.61445038  0.54768375  0.69270578    -0.01550
Br525      Br  0.39056850  0.46055336  0.80560438    -0.01510
Br526      Br  0.41180100  0.51769573  0.69573045    -0.01500
C527        C  0.51771201  0.54851943  0.26356382    -0.02620
C528        C  0.49806146  0.49836221  0.29627575     0.07060
C529        C  0.48354302  0.45421616  0.28181060    -0.02740
C530        C  0.48831482  0.46012433  0.23466728    -0.02740
C531        C  0.50815722  0.51032531  0.20190879     0.07190
C532        C  0.52261380  0.55444489  0.21640149    -0.02930
Br533      Br  0.55022867  0.62305591  0.17167002    -0.01480
Br534      Br  0.53985570  0.60945915  0.28357711    -0.01550
Br535      Br  0.46531808  0.39888725  0.21494965    -0.01510
Br536      Br  0.45545252  0.38541746  0.32656645    -0.01500
C537        C  0.54861969  0.79315205  0.01509533    -0.02620
C538        C  0.51125452  0.80281389  0.99316157     0.07060
C539        C  0.47271084  0.76369974  0.97500546    -0.02740
C540        C  0.46943464  0.71512303  0.98243405    -0.02740
C541        C  0.50411918  0.70486144  0.00758671     0.07190
C542        C  0.54378893  0.74395184  0.02343900    -0.02930
Br543      Br  0.59262024  0.72990014  0.05596312    -0.01480
Br544      Br  0.61085001  0.84780393  0.02946999    -0.01550
Br545      Br  0.41920311  0.66321825  0.95565345    -0.01510
Br546      Br  0.42565796  0.77546099  0.93694058    -0.01500
C547        C  0.45502700  0.20915047  0.99005272    -0.02620
C548        C  0.49700211  0.20371359  0.00445247     0.07060
C549        C  0.54067861  0.24737963  0.01342029    -0.02740
C550        C  0.54346848  0.29592194  0.00447248    -0.02740
C551        C  0.50218260  0.30100966  0.98904377     0.07190
C552        C  0.45836167  0.25774073  0.98137353    -0.02930
Br553      Br  0.40319837  0.26598882  0.95704182    -0.01480
Br554      Br  0.38977586  0.14959020  0.98667815    -0.01550
Br555      Br  0.60396393  0.35575654  0.01391090    -0.01510
Br556      Br  0.59646728  0.24216366  0.04041121    -0.01500
C557        C  0.26022681  0.47601307  0.97408238    -0.02620
C558        C  0.29889102  0.50210259  0.00011058     0.07060
C559        C  0.28826517  0.52260928  0.03120770    -0.02740
C560        C  0.23963142  0.51523377  0.03744590    -0.02740
C561        C  0.20339491  0.49570917  0.00699123     0.07190
C562        C  0.21345968  0.47375655  0.97670524    -0.02930
Br563      Br  0.16183788  0.43444079  0.94182577    -0.01480
Br564      Br  0.26902368  0.44015549  0.93616915    -0.01550
Br565      Br  0.22321841  0.52717587  0.09154748    -0.01510
Br566      Br  0.34082750  0.56529723  0.06348560    -0.01500
C567        C  0.75579244  0.46150946  0.03971487    -0.02620
C568        C  0.79373232  0.49396902  0.00131176     0.07060
C569        C  0.78646548  0.52801122  0.96439002    -0.02740
C570        C  0.74131243  0.52879398  0.96546691    -0.02740
C571        C  0.70350047  0.49665996  0.00404130     0.07190
C572        C  0.71186272  0.46429324  0.04184866    -0.02930
Br573      Br  0.66323559  0.42280735  0.09681087    -0.01480
Br574      Br  0.76167330  0.41005404  0.08832870    -0.01550
Br575      Br  0.73411270  0.57778064  0.91535704    -0.01510
Br576      Br  0.83968327  0.57649813  0.91342138    -0.01500
loop_ 
_geom_bond_atom_site_label_1 
_geom_bond_atom_site_label_2 
_geom_bond_distance 
_geom_bond_site_symmetry_2 
_ccdc_geom_bond_type 
Zr1           O2   2.443       .  S
Zr1           O3   2.449       .  S
Zr1           O4   2.441       .  S
Zr1           O7   2.417       .  S
Zr1           O9   2.381       .  S
Zr1          O10   2.384   1_554  S
Zr1          O11   2.404       .  S
Zr1          O12   2.404       .  S
O2           H58   0.990       .  S
O2           H66   0.990       .  S
O3           C23   1.286       .  A
O4           C25   1.283       .  A
O5          Zr15   2.453       .  S
O5           C24   1.287       .  A
O6          Zr14   2.427       .  S
O6           C25   1.282       .  A
O7           C24   1.280   1_554  A
O8          Zr16   2.405       .  S
O8           C23   1.278   1_556  A
O9          Zr14   2.399       .  S
O9          Zr16   2.381   1_554  S
O10         Zr15   2.387       .  S
O10         Zr16   2.375       .  S
O10          H45   0.965       .  S
O11         Zr14   2.400       .  S
O11         Zr31   2.390       .  S
O11          H48   0.964       .  S
O12         Zr15   2.387   1_554  S
O12         Zr31   2.395       .  S
Zr13         O38   2.430       .  S
Zr13         O32   2.439       .  S
Zr13         O40   2.435       .  S
Zr13         O28   2.431       .  S
Zr13         O19   2.396       .  S
Zr13         O20   2.401       .  S
Zr13         O21   2.376   1_556  S
Zr13         O22   2.382       .  S
Zr14         O33   2.434       .  S
Zr14         O26   2.435       .  S
Zr14         O27   2.445       .  S
Zr14         O20   2.385   1_554  S
Zr14         O21   2.382       .  S
Zr15         O17   2.434       .  S
Zr15         O39   2.438       .  S
Zr15         O41   2.446       .  S
Zr15         O19   2.383       .  S
Zr15         O22   2.384       .  S
Zr16         O42   2.435       .  S
Zr16         O43   2.438       .  S
Zr16         O18   2.438       .  S
Zr16         O19   2.388       .  S
Zr16         O20   2.388       .  S
O17          H54   0.989       .  S
O18          H49   0.990       .  S
O18          H63   0.990   1_556  S
O20          H46   0.965       .  S
O21         Zr31   2.372       .  S
O22         Zr31   2.375   1_556  S
O22          H47   0.966       .  S
C23         C541   1.470       .  S
C24         C558   1.498   1_556  S
C25         C531   1.472       .  S
O26          H62   0.990       .  S
O27          C29   1.288       .  A
O28          C29   1.287   1_556  A
C29         C571   1.484       .  S
O30         Zr31   2.440       .  S
O30          H59   0.990       .  S
Zr31         O34   2.436       .  S
Zr31         O35   2.440       .  S
Zr31         O36   2.426       .  S
O32          C37   1.287       .  A
O33          H50   0.990       .  S
O33          H65   0.989       .  S
O34          H51   0.990       .  S
O35          H55   0.990       .  S
O35          H64   0.989   1_554  S
O36          C37   1.284   1_554  A
C37         C551   1.480       .  S
O38          H57   0.990       .  S
O38          H61   0.987       .  S
O39          H53   0.990       .  S
O39          H60   0.990       .  S
O40          C44   1.284       .  A
O41          C44   1.288       .  A
O42          H52   0.990       .  S
O43          H56   0.990       .  S
C44         C521   1.505       .  S
Zr67         O68   2.434       .  S
Zr67         O69   2.436       .  S
Zr67         O70   2.445       .  S
Zr67         O73   2.414       .  S
Zr67         O75   2.380       .  S
Zr67         O76   2.380       .  S
Zr67         O77   2.403       .  S
Zr67         O78   2.398       .  S
O68         H124   0.989       .  S
O68         H132   0.990       .  S
O69          C89   1.286       .  A
O70          C91   1.286       .  A
O71         Zr81   2.451       .  S
O71          C90   1.288       .  A
O72         Zr80   2.441       .  S
O72          C91   1.286       .  A
O73          C90   1.281       .  A
O74         Zr82   2.427       .  S
O74          C89   1.283       .  A
O75         Zr80   2.394       .  S
O75         Zr82   2.375       .  S
O76         Zr81   2.380       .  S
O76         Zr82   2.374       .  S
O76         H111   0.965       .  S
O77         Zr80   2.399       .  S
O77         Zr97   2.387       .  S
O77         H114   0.966       .  S
O78         Zr81   2.379       .  S
O78         Zr97   2.389       .  S
Zr79        O104   2.441       .  S
Zr79         O98   2.448       .  S
Zr79        O106   2.429       .  S
Zr79         O94   2.426       .  S
Zr79         O85   2.398       .  S
Zr79         O86   2.408       .  S
Zr79         O87   2.375       .  S
Zr79         O88   2.384       .  S
Zr80         O99   2.436       .  S
Zr80         O92   2.434       .  S
Zr80         O93   2.457       .  S
Zr80         O86   2.395       .  S
Zr80         O87   2.387       .  S
Zr81         O83   2.435       .  S
Zr81        O105   2.438       .  S
Zr81        O107   2.424       .  S
Zr81         O85   2.393       .  S
Zr81         O88   2.395       .  S
Zr82        O108   2.434       .  S
Zr82        O109   2.439       .  S
Zr82         O84   2.438       .  S
Zr82         O85   2.393       .  S
Zr82         O86   2.394       .  S
O83         H120   0.990       .  S
O84         H115   0.990       .  S
O84         H129   0.990       .  S
O86         H112   0.965       .  S
O87         Zr97   2.374       .  S
O88         Zr97   2.384       .  S
O88         H113   0.966       .  S
C89         C478   1.483       .  S
C90         C498   1.481       .  S
C91         C518   1.509       .  S
O92         H128   0.990       .  S
O93          C95   1.289       .  A
O94          C95   1.282       .  A
C95         C508   1.504       .  S
O96         Zr97   2.439       .  S
O96         H125   0.990       .  S
Zr97        O100   2.437       .  S
Zr97        O101   2.441       .  S
Zr97        O102   2.407       .  S
O98         C103   1.286       .  A
O99         H116   0.990       .  S
O99         H131   0.990       .  S
O100        H117   0.990       .  S
O101        H121   0.990       .  S
O101        H130   0.989       .  S
O102        C103   1.279       .  A
C103        C491   1.473       .  S
O104        H123   0.990       .  S
O104        H127   0.989       .  S
O105        H119   0.990       .  S
O105        H126   0.990       .  S
O106        C110   1.283       .  A
O107        C110   1.283       .  A
O108        H118   0.990       .  S
O109        H122   0.990       .  S
C110        C528   1.471       .  S
Zr133       O134   2.437       .  S
Zr133       O135   2.427       .  S
Zr133       O136   2.445       .  S
Zr133       O139   2.443       .  S
Zr133       O141   2.379       .  S
Zr133       O142   2.382   1_556  S
Zr133       O143   2.406   1_655  S
Zr133       O144   2.405       .  S
O134        H190   0.990       .  S
O134        H198   0.990       .  S
O135        C155   1.282       .  A
O136        C157   1.286       .  A
O137       Zr147   2.417       .  S
O137        C156   1.282       .  A
O138       Zr146   2.417       .  S
O138        C157   1.281   1_455  A
O139        C156   1.288   1_556  A
O140       Zr148   2.446       .  S
O140        C155   1.287   1_554  A
O141       Zr146   2.391   1_655  S
O141       Zr148   2.374   1_556  S
O142       Zr147   2.387       .  S
O142       Zr148   2.368       .  S
O142        H177   0.966       .  S
O143       Zr146   2.396       .  S
O143       Zr163   2.392       .  S
O143        H180   0.965       .  S
O144       Zr147   2.389   1_556  S
O144       Zr163   2.397   1_655  S
Zr145       O170   2.448       .  S
Zr145       O164   2.451       .  S
Zr145       O172   2.443       .  S
Zr145       O160   2.447       .  S
Zr145       O151   2.403   1_455  S
Zr145       O152   2.408       .  S
Zr145       O153   2.379   1_554  S
Zr145       O154   2.382       .  S
Zr146       O165   2.436       .  S
Zr146       O158   2.435       .  S
Zr146       O159   2.423       .  S
Zr146       O152   2.390   1_556  S
Zr146       O153   2.388       .  S
Zr147       O149   2.434       .  S
Zr147       O171   2.433       .  S
Zr147       O173   2.410       .  S
Zr147       O151   2.385       .  S
Zr147       O154   2.383   1_655  S
Zr148       O174   2.435       .  S
Zr148       O175   2.435       .  S
Zr148       O150   2.435       .  S
Zr148       O151   2.399       .  S
Zr148       O152   2.399   1_655  S
O149        H186   0.990       .  S
O150        H181   0.990       .  S
O150        H195   0.989   1_554  S
O152        H178   0.966       .  S
O153       Zr163   2.377       .  S
O154       Zr163   2.375   1_554  S
O154        H179   0.966       .  S
C155        C468   1.493       .  S
C156        C568   1.481       .  S
C157        C438   1.470       .  S
O158        H194   0.990       .  S
O159        C161   1.282   1_556  A
O160        C161   1.285       .  A
C161        C561   1.507       .  S
O162       Zr163   2.440       .  S
O162        H191   0.990       .  S
Zr163       O166   2.437       .  S
Zr163       O167   2.439       .  S
Zr163       O168   2.428       .  S
O164        C169   1.289       .  A
O165        H182   0.990       .  S
O165        H197   0.990       .  S
O166        H183   0.990       .  S
O167        H187   0.990       .  S
O167        H196   0.989   1_556  S
O168        C169   1.283   1_556  A
C169        C458   1.487       .  S
O170        H189   0.990       .  S
O170        H193   0.990       .  S
O171        H185   0.990       .  S
O171        H192   0.989       .  S
O172        C176   1.286       .  A
O173        C176   1.280   1_655  A
O174        H184   0.990       .  S
O175        H188   0.990       .  S
C176        C448   1.469       .  S
Zr199       O200   2.440       .  S
Zr199       O201   2.435       .  S
Zr199       O202   2.453       .  S
Zr199       O205   2.446       .  S
Zr199       O207   2.383       .  S
Zr199       O208   2.385       .  S
Zr199       O209   2.403   1_655  S
Zr199       O210   2.402       .  S
O200        H256   0.990       .  S
O200        H264   0.990       .  S
O201        C221   1.285       .  A
O202        C223   1.286       .  A
O203       Zr213   2.431       .  S
O203        C222   1.284       .  A
O204       Zr212   2.408       .  S
O204        C223   1.279   1_455  A
O205        C222   1.286       .  A
O206       Zr214   2.422       .  S
O206        C221   1.281       .  A
O207       Zr212   2.390   1_655  S
O207       Zr214   2.378       .  S
O208       Zr213   2.384       .  S
O208       Zr214   2.374       .  S
O208        H243   0.966       .  S
O209       Zr212   2.398       .  S
O209       Zr229   2.394       .  S
O209        H246   0.965       .  S
O210       Zr213   2.379       .  S
O210       Zr229   2.388   1_655  S
Zr211       O236   2.443       .  S
Zr211       O230   2.438       .  S
Zr211       O238   2.448       .  S
Zr211       O226   2.452       .  S
Zr211       O217   2.409   1_455  S
Zr211       O218   2.404       .  S
Zr211       O219   2.379       .  S
Zr211       O220   2.387       .  S
Zr212       O231   2.436       .  S
Zr212       O224   2.436       .  S
Zr212       O225   2.413       .  S
Zr212       O218   2.392       .  S
Zr212       O219   2.383       .  S
Zr213       O215   2.435       .  S
Zr213       O237   2.436       .  S
Zr213       O239   2.413       .  S
Zr213       O217   2.395       .  S
Zr213       O220   2.384   1_655  S
Zr214       O240   2.435       .  S
Zr214       O241   2.435       .  S
Zr214       O216   2.436       .  S
Zr214       O217   2.393       .  S
Zr214       O218   2.394   1_655  S
O215        H252   0.990       .  S
O216        H247   0.990       .  S
O216        H261   0.990       .  S
O218        H244   0.966       .  S
O219       Zr229   2.375       .  S
O220       Zr229   2.372       .  S
O220        H245   0.966       .  S
C221        C431   1.474       .  S
C222        C511   1.504       .  S
C223        C451   1.470       .  S
O224        H260   0.990       .  S
O225        C227   1.281       .  A
O226        C227   1.288       .  A
C227        C501   1.478       .  S
O228       Zr229   2.442       .  S
O228        H257   0.990       .  S
Zr229       O232   2.436       .  S
Zr229       O233   2.442       .  S
Zr229       O234   2.423       .  S
O230        C235   1.284       .  A
O231        H248   0.990       .  S
O231        H263   0.989       .  S
O232        H249   0.990       .  S
O233        H253   0.990       .  S
O233        H262   0.990       .  S
O234        C235   1.284       .  A
C235        C418   1.494       .  S
O236        H255   0.990       .  S
O236        H259   0.990       .  S
O237        H251   0.990       .  S
O237        H258   0.990       .  S
O238        C242   1.288       .  A
O239        C242   1.281   1_655  A
O240        H250   0.990       .  S
O241        H254   0.990       .  S
C242        C441   1.473       .  S
Zr265       O266   2.442       .  S
Zr265       O267   2.448       .  S
Zr265       O268   2.448       .  S
Zr265       O271   2.423       .  S
Zr265       O273   2.377       .  S
Zr265       O274   2.383   1_556  S
Zr265       O275   2.410   1_565  S
Zr265       O276   2.406       .  S
O266        H322   0.990       .  S
O266        H330   0.989       .  S
O267        C287   1.283       .  A
O268        C289   1.286       .  A
O269       Zr279   2.447       .  S
O269        C288   1.286       .  A
O270       Zr278   2.438       .  S
O270        C289   1.285   1_545  A
O271        C288   1.283   1_556  A
O272       Zr280   2.410       .  S
O272        C287   1.277   1_554  A
O273       Zr278   2.404   1_565  S
O273       Zr280   2.383   1_556  S
O274       Zr279   2.394       .  S
O274       Zr280   2.375       .  S
O274        H309   0.966       .  S
O275       Zr278   2.402       .  S
O275       Zr295   2.389       .  S
O275        H312   0.965       .  S
O276       Zr279   2.393   1_556  S
O276       Zr295   2.392   1_565  S
Zr277       O302   2.440       .  S
Zr277       O296   2.440       .  S
Zr277       O304   2.437       .  S
Zr277       O292   2.427   1_554  S
Zr277       O283   2.395   1_545  S
Zr277       O284   2.399   1_554  S
Zr277       O285   2.376   1_554  S
Zr277       O286   2.381       .  S
Zr278       O297   2.435       .  S
Zr278       O290   2.435       .  S
Zr278       O291   2.448       .  S
Zr278       O284   2.389       .  S
Zr278       O285   2.386       .  S
Zr279       O281   2.436       .  S
Zr279       O303   2.438       .  S
Zr279       O305   2.451       .  S
Zr279       O283   2.380       .  S
Zr279       O286   2.387   1_565  S
Zr280       O306   2.436       .  S
Zr280       O307   2.439       .  S
Zr280       O282   2.438   1_554  S
Zr280       O283   2.386       .  S
Zr280       O284   2.388   1_564  S
O281        H318   0.990       .  S
O282        H313   0.990   1_556  S
O282        H327   0.990       .  S
O284        H310   0.964       .  S
O285       Zr295   2.374       .  S
O286       Zr295   2.378   1_554  S
O286        H311   0.966       .  S
C287        C538   1.507       .  S
C288        C461   1.481       .  S
C289        C398   1.486       .  S
O290        H326   0.990       .  S
O291        C293   1.288       .  A
O292        C293   1.284       .  A
C293        C471   1.478       .  S
O294       Zr295   2.443       .  S
O294        H323   0.990       .  S
Zr295       O298   2.438       .  S
Zr295       O299   2.442   1_556  S
Zr295       O300   2.427       .  S
O296        C301   1.285       .  A
O297        H314   0.990       .  S
O297        H329   0.990       .  S
O298        H315   0.990       .  S
O299        H319   0.989   1_554  S
O299        H328   0.989       .  S
O300        C301   1.282   1_556  A
C301        C548   1.503       .  S
O302        H321   0.990       .  S
O302        H325   0.990       .  S
O303        H317   0.990       .  S
O303        H324   0.990       .  S
O304        C308   1.284       .  A
O305        C308   1.289   1_565  A
O306        H316   0.990       .  S
O307        H320   0.990   1_565  S
C308        C411   1.510       .  S
Zr331       O332   2.426       .  S
Zr331       O333   2.431       .  S
Zr331       O334   2.443       .  S
Zr331       O337   2.415       .  S
Zr331       O339   2.375       .  S
Zr331       O340   2.380       .  S
Zr331       O341   2.397   1_565  S
Zr331       O342   2.395       .  S
O332        H388   0.988       .  S
O332        H396   0.990       .  S
O333        C353   1.285       .  A
O334        C355   1.284       .  A
O335       Zr345   2.458       .  S
O335        C354   1.289       .  A
O336       Zr344   2.449       .  S
O336        C355   1.287   1_545  A
O337        C354   1.284       .  A
O338       Zr346   2.432       .  S
O338        C353   1.284       .  A
O339       Zr344   2.388   1_565  S
O339       Zr346   2.376       .  S
O340       Zr345   2.385       .  S
O340       Zr346   2.375       .  S
O340        H375   0.965       .  S
O341       Zr344   2.387       .  S
O341       Zr361   2.390       .  S
O341        H378   0.966       .  S
O342       Zr345   2.384       .  S
O342       Zr361   2.387   1_565  S
Zr343       O368   2.442       .  S
Zr343       O362   2.453       .  S
Zr343       O370   2.435       .  S
Zr343       O358   2.429       .  S
Zr343       O349   2.397   1_545  S
Zr343       O350   2.413       .  S
Zr343       O351   2.377       .  S
Zr343       O352   2.380       .  S
Zr344       O363   2.435       .  S
Zr344       O356   2.435       .  S
Zr344       O357   2.430       .  S
Zr344       O350   2.402       .  S
Zr344       O351   2.399       .  S
Zr345       O347   2.434       .  S
Zr345       O369   2.436       .  S
Zr345       O371   2.435       .  S
Zr345       O349   2.393       .  S
Zr345       O352   2.398   1_565  S
Zr346       O372   2.434       .  S
Zr346       O373   2.440       .  S
Zr346       O348   2.437       .  S
Zr346       O349   2.392       .  S
Zr346       O350   2.397   1_565  S
O347        H384   0.990       .  S
O348        H379   0.990       .  S
O348        H393   0.990       .  S
O350        H376   0.965       .  S
O351       Zr361   2.377       .  S
O352       Zr361   2.384       .  S
O352        H377   0.966       .  S
C353        C481   1.482       .  S
C354        C421   1.487       .  S
C355        C408   1.511       .  S
O356        H392   0.990       .  S
O357        C359   1.283       .  A
O358        C359   1.283       .  A
C359        C428   1.476       .  S
O360       Zr361   2.442       .  S
O360        H389   0.990       .  S
Zr361       O364   2.438       .  S
Zr361       O365   2.442       .  S
Zr361       O366   2.413       .  S
O362        C367   1.285       .  A
O363        H380   0.990       .  S
O363        H395   0.990       .  S
O364        H381   0.990       .  S
O365        H385   0.989       .  S
O365        H394   0.990       .  S
O366        C367   1.278       .  A
C367        C488   1.511       .  S
O368        H387   0.991       .  S
O368        H391   0.990       .  S
O369        H383   0.990       .  S
O369        H390   0.990       .  S
O370        C374   1.285       .  A
O371        C374   1.285   1_565  A
O372        H382   0.990       .  S
O373        H386   0.990   1_565  S
C374        C401   1.484       .  S
C397        C398   1.411   1_545  A
C397        C402   1.411       .  A
C397       Br404   1.931       .  S
C398        C399   1.415       .  A
C399        C400   1.409       .  A
C399       Br406   1.931       .  S
C400        C401   1.410   1_565  A
C400       Br405   1.933       .  S
C401        C402   1.414       .  A
C402       Br403   1.932       .  S
C407        C408   1.417   1_545  A
C407        C412   1.415       .  A
C407       Br414   1.940       .  S
C408        C409   1.419       .  A
C409        C410   1.408       .  A
C409       Br416   1.927       .  S
C410        C411   1.416   1_565  A
C410       Br415   1.940       .  S
C411        C412   1.424       .  A
C412       Br413   1.930       .  S
C417        C418   1.421       .  A
C417        C422   1.420       .  A
C417       Br424   1.927       .  S
C418        C419   1.410       .  A
C419        C420   1.392       .  A
C419       Br426   1.932       .  S
C420        C421   1.406       .  A
C420       Br425   1.925       .  S
C421        C422   1.414       .  A
C422       Br423   1.926       .  S
C427        C428   1.412       .  A
C427        C432   1.410       .  A
C427       Br434   1.930       .  S
C428        C429   1.408       .  A
C429        C430   1.401       .  A
C429       Br436   1.928       .  S
C430        C431   1.407       .  A
C430       Br435   1.928       .  S
C431        C432   1.411       .  A
C432       Br433   1.929       .  S
C437        C438   1.407       .  A
C437        C442   1.408       .  A
C437       Br444   1.930       .  S
C438        C439   1.409   1_655  A
C439        C440   1.406       .  A
C439       Br446   1.931       .  S
C440        C441   1.408       .  A
C440       Br445   1.928       .  S
C441        C442   1.412   1_455  A
C442       Br443   1.931       .  S
C447        C448   1.410   1_655  A
C447        C452   1.406       .  A
C447       Br454   1.931       .  S
C448        C449   1.406       .  A
C449        C450   1.407       .  A
C449       Br456   1.928       .  S
C450        C451   1.411   1_455  A
C450       Br455   1.930       .  S
C451        C452   1.407       .  A
C452       Br453   1.928       .  S
C457        C458   1.410       .  A
C457        C462   1.405       .  A
C457       Br464   1.925       .  S
C458        C459   1.416       .  A
C459        C460   1.413       .  A
C459       Br466   1.928       .  S
C460        C461   1.410       .  A
C460       Br465   1.930       .  S
C461        C462   1.408       .  A
C462       Br463   1.929       .  S
C467        C468   1.416       .  A
C467        C472   1.409       .  A
C467       Br474   1.929       .  S
C468        C469   1.420       .  A
C469        C470   1.410       .  A
C469       Br476   1.932       .  S
C470        C471   1.405       .  A
C470       Br475   1.929       .  S
C471        C472   1.409       .  A
C472       Br473   1.932       .  S
C477        C478   1.415       .  A
C477        C482   1.407       .  A
C477       Br484   1.933       .  S
C478        C479   1.410       .  A
C479        C480   1.408       .  A
C479       Br486   1.932       .  S
C480        C481   1.414       .  A
C480       Br485   1.931       .  S
C481        C482   1.410       .  A
C482       Br483   1.932       .  S
C487        C488   1.428       .  A
C487        C492   1.414       .  A
C487       Br494   1.934       .  S
C488        C489   1.429       .  A
C489        C490   1.406       .  A
C489       Br496   1.936       .  S
C490        C491   1.400       .  A
C490       Br495   1.935       .  S
C491        C492   1.406       .  A
C492       Br493   1.934       .  S
C497        C498   1.411       .  A
C497        C502   1.408       .  A
C497       Br504   1.932       .  S
C498        C499   1.414       .  A
C499        C500   1.408       .  A
C499       Br506   1.929       .  S
C500        C501   1.408       .  A
C500       Br505   1.931       .  S
C501        C502   1.412       .  A
C502       Br503   1.932       .  S
C507        C508   1.418       .  A
C507        C512   1.413       .  A
C507       Br514   1.936       .  S
C508        C509   1.422       .  A
C509        C510   1.411       .  A
C509       Br516   1.937       .  S
C510        C511   1.418       .  A
C510       Br515   1.937       .  S
C511        C512   1.420       .  A
C512       Br513   1.936       .  S
C517        C518   1.420       .  A
C517        C522   1.412       .  A
C517       Br524   1.939       .  S
C518        C519   1.420       .  A
C519        C520   1.409       .  A
C519       Br526   1.929       .  S
C520        C521   1.415       .  A
C520       Br525   1.938       .  S
C521        C522   1.420       .  A
C522       Br523   1.933       .  S
C527        C528   1.410       .  A
C527        C532   1.407       .  A
C527       Br534   1.931       .  S
C528        C529   1.407       .  A
C529        C530   1.406       .  A
C529       Br536   1.930       .  S
C530        C531   1.411       .  A
C530       Br535   1.930       .  S
C531        C532   1.407       .  A
C532       Br533   1.927       .  S
C537        C538   1.428   1_554  A
C537        C542   1.405       .  A
C537       Br544   1.937       .  S
C538        C539   1.428       .  A
C539        C540   1.412       .  A
C539       Br546   1.936       .  S
C540        C541   1.405   1_556  A
C540       Br545   1.935       .  S
C541        C542   1.400       .  A
C542       Br543   1.935       .  S
C547        C548   1.425   1_556  A
C547        C552   1.407       .  A
C547       Br554   1.933       .  S
C548        C549   1.424       .  A
C549        C550   1.412       .  A
C549       Br556   1.937       .  S
C550        C551   1.407   1_554  A
C550       Br555   1.925       .  S
C551        C552   1.403       .  A
C552       Br553   1.934       .  S
C557        C558   1.415   1_556  A
C557        C562   1.412       .  A
C557       Br564   1.936       .  S
C558        C559   1.419       .  A
C559        C560   1.408       .  A
C559       Br566   1.937       .  S
C560        C561   1.420       .  A
C560       Br565   1.939       .  S
C561        C562   1.425   1_554  A
C562       Br563   1.938       .  S
C567        C568   1.413       .  A
C567        C572   1.407       .  A
C567       Br574   1.929       .  S
C568        C569   1.409   1_554  A
C569        C570   1.407       .  A
C569       Br576   1.932       .  S
C570        C571   1.414   1_556  A
C570       Br575   1.924       .  S
C571        C572   1.412       .  A
C572       Br573   1.932       .  S
