geometry optimzed in LAMMPS
_audit_creation_date              2020-11-30 
_audit_creation_method            'lammps2cif' 
_symmetry_space_group_name_H-M    'P1' 
_symmetry_Int_Tables_number       1 
_symmetry_cell_setting            triclinic 
loop_ 
_symmetry_equiv_pos_as_xyz 
  x,y,z 
_cell_length_a                    53.60132067061039 
_cell_length_b                    53.50562682016982 
_cell_length_c                    65.90901811003694 
_cell_angle_alpha                 90.10516055511921 
_cell_angle_beta                  89.80602555267878 
_cell_angle_gamma                 119.99382739869348 
loop_ 
_atom_site_label 
_atom_site_type_symbol 
_atom_site_fract_x 
_atom_site_fract_y 
_atom_site_fract_z 
_atom_site_charge 
C1          C  0.33103756  0.04926169  0.72492600     0.02690
C2          C  0.35536149  0.06044150  0.71228906    -0.13460
C3          C  0.35883648  0.04274926  0.69794599     0.00190
C4          C  0.33624302  0.01394591  0.69581286    -0.11980
C5          C  0.31064589  0.00357864  0.70696697     0.02680
C6          C  0.30838215  0.02116600  0.72171130    -0.11410
H7          H  0.37160942  0.08285432  0.71417319     0.08280
H8          H  0.33811273  0.99911918  0.68563297     0.05810
H9          H  0.28915605  0.01269701  0.73104572     0.05650
C10         C  0.41070761  0.05266686  0.65471708     0.02690
C11         C  0.38580457  0.04131476  0.66666913    -0.13460
C12         C  0.38570668  0.05435528  0.68529748     0.00190
C13         C  0.41165670  0.07877743  0.69163487    -0.11980
C14         C  0.43581520  0.09176492  0.67877153     0.02680
C15         C  0.43489922  0.07865278  0.66016145    -0.11410
H16         H  0.36645398  0.52255442  0.66100000     0.08280
H17         H  0.41336631  0.08819101  0.70644846     0.05810
H18         H  0.45347289  0.08813337  0.65015336     0.05650
C19         C  0.25879512  0.38266023  0.82460643     0.02690
C20         C  0.26842630  0.41217372  0.82607303    -0.13460
C21         C  0.28573369  0.42840790  0.84221195     0.00190
C22         C  0.29660674  0.41606028  0.85567981    -0.11980
C23         C  0.28826064  0.38642507  0.85431252     0.02680
C24         C  0.26803758  0.36976196  0.83908663    -0.11410
H25         H  0.26073642  0.42218164  0.81539037     0.08280
H26         H  0.31107461  0.43002487  0.86721854     0.05810
H27         H  0.25893735  0.34667784  0.83829402     0.05650
C28         C  0.32946464  0.37696494  0.89840532     0.02690
C29         C  0.32703229  0.35049011  0.89364862    -0.13460
C30         C  0.31089455  0.33448774  0.87701226     0.00190
C31         C  0.29810545  0.34598390  0.86431781    -0.11980
C32         C  0.30048297  0.37313688  0.86856068     0.02680
C33         C  0.31577484  0.38792306  0.88625077    -0.11410
H34         H  0.33780589  0.34219279  0.90308712     0.08280
H35         H  0.28694531  0.33362081  0.85107364     0.05810
H36         H  0.31764727  0.40810613  0.89090754     0.05650
C37         C  0.42563008  0.21880586  0.49052914     0.02690
C38         C  0.44119223  0.20902990  0.50194123    -0.13460
C39         C  0.45001816  0.21878134  0.52201340     0.00190
C40         C  0.44509573  0.24071271  0.52952943    -0.11980
C41         C  0.43402537  0.25396896  0.51699962     0.02680
C42         C  0.42295590  0.24188178  0.49801243    -0.11410
H43         H  0.44575428  0.19341155  0.49504358     0.08280
H44         H  0.45068516  0.24868815  0.54484928     0.05810
H45         H  0.41251728  0.25079102  0.48888109     0.05650
C46         C  0.49608900  0.21146988  0.56345166     0.02690
C47         C  0.48179035  0.22218396  0.55167162    -0.13460
C48         C  0.46490379  0.20677625  0.53472944     0.00190
C49         C  0.46224597  0.17967860  0.53017831    -0.11980
C50         C  0.47751069  0.16921434  0.54116912     0.02680
C51         C  0.49454259  0.18544724  0.55769589    -0.11410
H52         H  0.48410375  0.24264503  0.55607458     0.08280
H53         H  0.44781223  0.16607547  0.51842810     0.05810
H54         H  0.50595607  0.17730445  0.56655911     0.05650
C55         C  0.24897871  0.21208463  0.99376099     0.02690
C56         C  0.22282975  0.20146332  0.00422643    -0.13460
C57         C  0.21875299  0.21895212  0.01840681     0.00190
C58         C  0.24122110  0.24757061  0.02115705    -0.11980
C59         C  0.26824713  0.25735793  0.01212745     0.02680
C60         C  0.27204755  0.23920834  0.99868547    -0.11410
H61         H  0.20598309  0.17964549  0.00107262     0.08280
H62         H  0.23803362  0.26240867  0.03048001     0.05810
H63         H  0.29261711  0.24682537  0.99115705     0.05650
C64         C  0.16728861  0.20710848  0.06224446     0.02690
C65         C  0.19222329  0.21864346  0.05025585    -0.13460
C66         C  0.19180506  0.20726027  0.03080992     0.00190
C67         C  0.16579848  0.18366509  0.02388658    -0.11980
C68         C  0.14191052  0.16958988  0.03684359     0.02680
C69         C  0.14277962  0.18185717  0.05581814    -0.11410
H70         H  0.21176613  0.23644520  0.05633548     0.08280
H71         H  0.16415030  0.17541577  0.00866774     0.05810
H72         H  0.12413237  0.17171026  0.06570865     0.05650
C73         C  0.00035336  0.37408556  0.39681386     0.02690
C74         C  0.02542515  0.38538820  0.38487462    -0.13460
C75         C  0.02713772  0.37040697  0.36760025     0.00190
C76         C  0.00251834  0.34356359  0.36288776    -0.11980
C77         C  0.47732925  0.33236611  0.37460365     0.02680
C78         C  0.47644605  0.34770310  0.39147415    -0.11410
H79         H  0.04307128  0.40607198  0.38933112     0.08280
H80         H  0.00221860  0.33059689  0.35028219     0.05810
H81         H  0.45700390  0.33893824  0.40060494     0.05650
C82         C  0.07863167  0.38273035  0.32295533     0.02690
C83         C  0.10280735  0.40847473  0.32872319    -0.13460
C84         C  0.10375973  0.42095892  0.34754080     0.00190
C85         C  0.07992238  0.40748969  0.36061779    -0.11980
C86         C  0.05392119  0.38287907  0.35441696     0.02680
C87         C  0.05397140  0.37067933  0.33527240    -0.11410
H88         H  0.12134318  0.41845121  0.31868856     0.08280
H89         H  0.08223990  0.41699151  0.37541283     0.05810
H90         H  0.03537291  0.35172016  0.32947576     0.05650
C91         C  0.08171541  0.04294177  0.16227722     0.02690
C92         C  0.08669541  0.07091620  0.16560146    -0.13460
C93         C  0.10489707  0.08788640  0.18128803     0.00190
C94         C  0.11950369  0.07737858  0.19297320    -0.11980
C95         C  0.11488008  0.04919976  0.19002747     0.02680
C96         C  0.09478576  0.03187074  0.17501422    -0.11410
H97         H  0.07627224  0.07945343  0.15605447     0.08280
H98         H  0.13443809  0.09168694  0.20419899     0.05810
H99         H  0.08901321  0.50961565  0.17282069     0.05650
C100        C  0.15708404  0.03881513  0.23304388     0.02690
C101        C  0.15470554  0.01248311  0.22733503    -0.13460
C102        C  0.14218815  0.49945512  0.20877237     0.00190
C103        C  0.13162267  0.01305411  0.19608257    -0.11980
C104        C  0.13034697  0.03761896  0.20257808     0.02680
C105        C  0.14393303  0.05065689  0.22113111    -0.11410
H106        H  0.16348715  0.00257249  0.23716199     0.08280
H107        H  0.12420776  0.00391291  0.18120126     0.05810
H108        H  0.14471047  0.07002650  0.22663168     0.05650
C109        C  0.03903654  0.34209187  0.82450348     0.02690
C110        C  0.05250521  0.36508024  0.83806637    -0.13460
C111        C  0.03971017  0.36442104  0.85697880     0.00190
C112        C  0.01349045  0.33916392  0.86200363    -0.11980
C113        C  0.49851232  0.31723279  0.84758625     0.02680
C114        C  0.01122757  0.31967795  0.82851770    -0.11410
H115        H  0.07304402  0.38294501  0.83351941     0.08280
H116        H  0.50453456  0.33618342  0.87710109     0.05810
H117        H  0.50032277  0.30299292  0.81719243     0.05650
C118        C  0.04956989  0.41681917  0.90001365     0.02690
C119        C  0.03703589  0.39327915  0.88663388    -0.13460
C120        C  0.05346874  0.38972544  0.87127297     0.00190
C121        C  0.08259556  0.41162038  0.86901777    -0.11980
C122        C  0.09448898  0.43629690  0.88125391     0.02680
C123        C  0.07838448  0.43825151  0.89723950    -0.11410
H124        H  0.51425094  0.37822287  0.88823918     0.08280
H125        H  0.09637982  0.41048231  0.85754210     0.05810
H126        H  0.08789631  0.45712860  0.90696071     0.05650
C127        C  0.37138217  0.32806814  0.65503394     0.02690
C128        C  0.38015972  0.31198536  0.66673685    -0.13460
C129        C  0.36293047  0.29425281  0.68289990     0.00190
C130        C  0.33655088  0.29366687  0.68681574    -0.11980
C131        C  0.32808107  0.31022818  0.67537387     0.02680
C132        C  0.34547770  0.32723405  0.65944327    -0.11410
H133        H  0.40078422  0.31418028  0.66309838     0.08280
H134        H  0.32209687  0.28078030  0.69875145     0.05810
H135        H  0.33874768  0.33970045  0.65037389     0.05650
C136        C  0.37189377  0.25713802  0.72951380     0.02690
C137        C  0.35881126  0.26515914  0.71462257    -0.13460
C138        C  0.37374630  0.27905313  0.69668781     0.00190
C139        C  0.39997814  0.27933333  0.69278039    -0.11980
C140        C  0.41466482  0.27356686  0.70824239     0.02680
C141        C  0.40072333  0.26445014  0.72713183    -0.11410
H142        H  0.33691798  0.25990246  0.71737933     0.08280
H143        H  0.40904946  0.28383886  0.67774262     0.05810
H144        H  0.41149294  0.26121927  0.73984191     0.05650
C145        C  0.20640433  0.17167576  0.49365841     0.02690
C146        C  0.21826316  0.19613257  0.50609847    -0.13460
C147        C  0.20615050  0.19545105  0.52527237     0.00190
C148        C  0.18162726  0.16958650  0.53154852    -0.11980
C149        C  0.16771875  0.14613458  0.51819445     0.02680
C150        C  0.18053605  0.14737870  0.49937974    -0.11410
H151        H  0.23681958  0.21553854  0.50052339     0.08280
H152        H  0.17263110  0.16776326  0.54655286     0.05810
H153        H  0.17036099  0.12921783  0.48906063     0.05650
C154        C  0.21154214  0.25121410  0.56385479     0.02690
C155        C  0.20032656  0.22640689  0.55171422    -0.13460
C156        C  0.21822991  0.22194282  0.53817272     0.00190
C157        C  0.24739821  0.24370590  0.53634863    -0.11980
C158        C  0.25779081  0.27007383  0.54648444     0.02680
C159        C  0.23999391  0.27312546  0.56064045    -0.11410
H160        H  0.17763029  0.21077448  0.55297837     0.08280
H161        H  0.26206116  0.24077279  0.52666363     0.05810
H162        H  0.24841947  0.29296663  0.56924154     0.05650
C163        C  0.20477066  0.49766438  0.99286717     0.02690
C164        C  0.21534014  0.48166363  0.00279784    -0.13460
C165        C  0.20044155  0.46360796  0.01952048     0.00190
C166        C  0.17321476  0.46020940  0.02461843    -0.11980
C167        C  0.16311548  0.47675671  0.01508981     0.02680
C168        C  0.17955925  0.49631955  0.00002324    -0.11410
H169        H  0.23522084  0.48382985  0.99721794     0.08280
H170        H  0.15932007  0.44466868  0.03576057     0.05810
H171        H  0.17165509  0.50928754  0.99291844     0.05650
C172        C  0.21248324  0.42196305  0.06209044     0.02690
C173        C  0.20172281  0.43683433  0.05099747    -0.13460
C174        C  0.21308806  0.44874783  0.03167990     0.00190
C175        C  0.23744070  0.44738611  0.02476840    -0.11980
C176        C  0.25044355  0.43568518  0.03696794     0.02680
C177        C  0.23706981  0.42188752  0.05504553    -0.11410
H178        H  0.18444691  0.43877743  0.05781114     0.08280
H179        H  0.24729719  0.45591094  0.01024495     0.05810
H180        H  0.24628595  0.41149738  0.06394435     0.05650
C181        C  0.04557824  0.09855659  0.40044972     0.02690
C182        C  0.07205367  0.10103253  0.39548406    -0.13460
C183        C  0.08433300  0.11051765  0.37619829     0.00190
C184        C  0.06984754  0.11829954  0.36206099    -0.11980
C185        C  0.04507690  0.11953579  0.36775174     0.02680
C186        C  0.03328239  0.10968710  0.38721849    -0.11410
H187        H  0.08254847  0.09436304  0.40648257     0.08280
H188        H  0.07819333  0.12367901  0.34675239     0.05810
H189        H  0.51417794  0.10990397  0.39224537     0.05650
C190        C  0.03579993  0.16291980  0.32555332     0.02690
C191        C  0.04847179  0.15216401  0.33894663    -0.13460
C192        C  0.03165243  0.13113032  0.35359415     0.00190
C193        C  0.00215881  0.12238929  0.35528670    -0.11980
C194        C  0.49031627  0.13579457  0.34379930     0.02680
C195        C  0.00680243  0.15477394  0.32833395    -0.11410
H196        H  0.07141441  0.16037399  0.33785757     0.08280
H197        H  0.48829501  0.10587235  0.36594313     0.05810
H198        H  0.49706531  0.16382860  0.31861853     0.05650
C199        C  0.37320678  0.08569213  0.22786885     0.02690
C200        C  0.36139472  0.06061729  0.21595918    -0.13460
C201        C  0.37788078  0.05701748  0.20063951     0.00190
C202        C  0.40644049  0.07978042  0.19745120    -0.11980
C203        C  0.41755005  0.10574912  0.20830829     0.02680
C204        C  0.40081792  0.10844966  0.22352408    -0.11410
H205        H  0.33942306  0.04417559  0.21903735     0.08280
H206        H  0.42056439  0.07761304  0.18675142     0.05810
H207        H  0.40964123  0.12811085  0.23241782     0.05650
C208        C  0.36983644  0.00316042  0.15918982     0.02690
C209        C  0.37827314  0.02914640  0.16957374    -0.13460
C210        C  0.36597559  0.02955201  0.18849595     0.00190
C211        C  0.34209336  0.00351894  0.19538218    -0.11980
C212        C  0.33162297  0.47806192  0.18403818     0.02680
C213        C  0.34675372  0.47754661  0.16688769    -0.11410
H214        H  0.39438697  0.04900606  0.16260859     0.08280
H215        H  0.33090852  0.00256694  0.20926288     0.05810
H216        H  0.33930072  0.45741294  0.15878010     0.05650
C217        C  0.25389000  0.33761638  0.32579020     0.02690
C218        C  0.26929297  0.36356716  0.33667948    -0.13460
C219        C  0.28627480  0.36579298  0.35385547     0.00190
C220        C  0.28793963  0.34097493  0.35913255    -0.11980
C221        C  0.27228733  0.31492156  0.34858354     0.02680
C222        C  0.25501773  0.31326483  0.33219753    -0.11410
H223        H  0.26774378  0.38166576  0.33119900     0.08280
H224        H  0.30189916  0.34135276  0.37099166     0.05810
H225        H  0.24328128  0.29317333  0.32388189     0.05650
C226        C  0.33229070  0.42062596  0.39524371     0.02690
C227        C  0.31660447  0.39474982  0.38437645    -0.13460
C228        C  0.30253132  0.39366090  0.36587543     0.00190
C229        C  0.30349501  0.41947648  0.35953740    -0.11980
C230        C  0.31788422  0.44491353  0.37099585     0.02680
C231        C  0.33307148  0.44560467  0.38828829    -0.11410
H232        H  0.31541657  0.37579568  0.39099280     0.08280
H233        H  0.29258710  0.42046188  0.34614576     0.05810
H234        H  0.34432444  0.46538718  0.39701331     0.05650
C235        C  0.15860023  0.08710430  0.73083162     0.02690
C236        C  0.14895665  0.06338906  0.71743521    -0.13460
C237        C  0.13011583  0.05925953  0.70107990     0.00190
C238        C  0.12358062  0.08120631  0.69706932    -0.11980
C239        C  0.13772882  0.10721772  0.70758393     0.02680
C240        C  0.15582988  0.11031397  0.72366937    -0.11410
H241        H  0.15744696  0.04908613  0.71892114     0.08280
H242        H  0.10845437  0.07898196  0.68543920     0.05810
H243        H  0.16848323  0.13164748  0.72985762     0.05650
C244        C  0.08985107  0.00487458  0.65861563     0.02690
C245        C  0.10514233  0.03104395  0.66919442    -0.13460
C246        C  0.11704240  0.03216159  0.68854926     0.00190
C247        C  0.11565001  0.00678429  0.69600959    -0.11980
C248        C  0.10361825  0.48153127  0.68438818     0.02680
C249        C  0.08957588  0.48033644  0.66627603    -0.11410
H250        H  0.10708244  0.05018805  0.66222153     0.08280
H251        H  0.12405262  0.00619913  0.71075668     0.05810
H252        H  0.07867264  0.46019293  0.65795248     0.05650
C253        C  0.24724230  0.49645668  0.49209690     0.02690
C254        C  0.22244589  0.48402368  0.50420667    -0.13460
C255        C  0.21957724  0.46649942  0.52117791     0.00190
C256        C  0.24354920  0.46308524  0.52589428    -0.11980
C257        C  0.26870305  0.47586398  0.51394388     0.02680
C258        C  0.27006873  0.49198613  0.49682432    -0.11410
H259        H  0.20602021  0.48894107  0.49997573     0.08280
H260        H  0.24357656  0.45094284  0.53888559     0.05810
H261        H  0.28932397  0.50179677  0.48747539     0.05650
C262        C  0.16422348  0.42394586  0.56335012     0.02690
C263        C  0.18953441  0.43637118  0.55161754    -0.13460
C264        C  0.19219868  0.45258265  0.53388544     0.00190
C265        C  0.16808049  0.45538911  0.52854797    -0.11980
C266        C  0.14316688  0.44348840  0.54052502     0.02680
C267        C  0.14121406  0.42766585  0.55778528    -0.11410
H268        H  0.20667882  0.43306949  0.55684074     0.08280
H269        H  0.16773979  0.46678284  0.51522857     0.05810
H270        H  0.12182454  0.41840208  0.56699806     0.05650
C271        C  0.33384712  0.25428520  0.22976980     0.02690
C272        C  0.35698007  0.26384241  0.21628128    -0.13460
C273        C  0.35652621  0.27587079  0.19727305     0.00190
C274        C  0.33106667  0.27617535  0.19194217    -0.11980
C275        C  0.30887930  0.26916789  0.20620285     0.02680
C276        C  0.31109603  0.25899701  0.22531514    -0.11410
H277        H  0.37491364  0.26153073  0.22107289     0.08280
H278        H  0.32827678  0.28207025  0.17681533     0.05810
H279        H  0.29432180  0.25337842  0.23656607     0.05650
C280        C  0.41060305  0.32116606  0.15559474     0.02690
C281        C  0.38572276  0.30817332  0.16776407    -0.13460
C282        C  0.38257116  0.28873075  0.18349862     0.00190
C283        C  0.40572365  0.28356714  0.18680179    -0.11980
C284        C  0.43117492  0.29801793  0.17546841     0.02680
C285        C  0.43309815  0.31587239  0.15951804    -0.11410
H286        H  0.36952823  0.31413181  0.16502763     0.08280
H287        H  0.40488269  0.26883800  0.19827433     0.05810
H288        H  0.45267901  0.32653558  0.15052089     0.05650
C289        C  0.43269192  0.17068885  0.98708899     0.02690
C290        C  0.43943420  0.19347873  0.00071310    -0.13460
C291        C  0.45676372  0.19796386  0.01811653     0.00190
C292        C  0.46355231  0.17630122  0.02284990    -0.11980
C293        C  0.45568937  0.15277295  0.00993904     0.02680
C294        C  0.44250512  0.15145226  0.99142654    -0.11410
H295        H  0.43035859  0.20699422  0.99753933     0.08280
H296        H  0.47369678  0.17637292  0.03697078     0.05810
H297        H  0.43791739  0.13395126  0.98104447     0.05650
C298        C  0.48811564  0.24864341  0.06424691     0.02690
C299        C  0.48435437  0.22871462  0.04881780    -0.13460
C300        C  0.46552383  0.22337860  0.03218973     0.00190
C301        C  0.45630535  0.24354641  0.02887941    -0.11980
C302        C  0.46193184  0.26503950  0.04311030     0.02680
C303        C  0.47445733  0.26502671  0.06170672    -0.11410
H304        H  0.49682400  0.21803105  0.04972788     0.08280
H305        H  0.44610773  0.24414682  0.01498146     0.05810
H306        H  0.47591041  0.27996749  0.07334502     0.05650
C307        C  0.07712820  0.15431580  0.82151640     0.02690
C308        C  0.05072164  0.13799863  0.83185709    -0.13460
C309        C  0.04908492  0.12399514  0.85049911     0.00190
C310        C  0.07371636  0.12297303  0.85674507    -0.11980
C311        C  0.09953341  0.13713409  0.84583663     0.02680
C312        C  0.10147597  0.15385952  0.82891859    -0.11410
H313        H  0.03172261  0.13677913  0.82531189     0.08280
H314        H  0.07359666  0.11162453  0.87026472     0.05810
H315        H  0.12202145  0.16607748  0.82123127     0.05650
C316        C  0.99760429  0.08740657  0.89548931     0.02690
C317        C  0.01902741  0.09401643  0.88072407    -0.13460
C318        C  0.02294662  0.11258342  0.86414935     0.00190
C319        C  0.00245983  0.12161580  0.86160309    -0.11980
C320        C  0.47965717  0.11320554  0.87530554     0.02680
C321        C  0.47823519  0.09750500  0.89270765    -0.11410
H322        H  0.03244913  0.08444490  0.88254967     0.08280
H323        H  0.00362786  0.13506865  0.84904197     0.05810
H324        H  0.46102990  0.09188170  0.90359877     0.05650
O325        O  0.28990045  0.08241767  0.80589479    -0.86930
O326        O  0.37091709  0.21014554  0.87529943    -0.87090
O327        O  0.33876175  0.17804573  0.80841285    -0.88760
O328        O  0.37526702  0.13685908  0.84953373    -0.87520
O329        O  0.35688728  0.10570448  0.87661741    -0.87110
O330        O  0.29906338  0.18352487  0.80979030    -0.88480
O331        O  0.37835684  0.19594714  0.84431425    -0.86960
O332        O  0.33577720  0.12113221  0.80711210    -0.86540
Zr333      Zr  0.33846745  0.14850393  0.83723545     2.84310
O334        O  0.33801979  0.14497648  0.87249890    -1.08520
O335        O  0.29113999  0.13061048  0.82657600    -1.09250
C336        C  0.31555280  0.09830008  0.79857000     1.06180
C337        C  0.38625059  0.21390320  0.85913345     1.06120
C338        C  0.32243103  0.18744455  0.80125799     1.09110
C339        C  0.37704540  0.12119143  0.86392131     1.06890
H340        H  0.33101822  0.19592615  0.84606460     0.32440
O341        O  0.31975578  0.17623368  0.85070086    -1.29470
H342        H  0.31923471  0.08973698  0.84210311     0.32120
O343        O  0.31071750  0.10038269  0.84779698    -1.31150
O344        O  0.29576775  0.17691476  0.91584887    -0.86920
O345        O  0.21642635  0.04439734  0.84840501    -0.88420
O346        O  0.28890019  0.20801540  0.85219513    -0.87000
O347        O  0.34367043  0.12299659  0.91000812    -0.87050
O348        O  0.29730506  0.04953668  0.86898580    -0.86760
O349        O  0.24323054  0.13242794  0.81015811    -0.86560
O350        O  0.20657277  0.11873153  0.87621068    -0.86940
O351        O  0.24155880  0.08147847  0.91479511    -0.86400
O352        O  0.22360643  0.14941280  0.84893774    -0.87460
O353        O  0.27780884  0.07065286  0.91293835    -0.86620
O354        O  0.31891907  0.21720686  0.87947651    -0.87020
O355        O  0.23777493  0.08760224  0.80808006    -0.86740
O356        O  0.27038196  0.04112406  0.84008111    -0.86390
O357        O  0.35142664  0.16883067  0.91217687    -0.86800
O358        O  0.24881758  0.13990342  0.91392551    -0.87100
O359        O  0.20647269  0.06020850  0.87817647    -0.88430
Zr360      Zr  0.32165959  0.17421957  0.88614771     2.83100
Zr361      Zr  0.26356752  0.08243278  0.83637280     2.83500
Zr362      Zr  0.27204796  0.15820206  0.83990820     2.84090
Zr363      Zr  0.30901082  0.09702801  0.88342301     2.83360
Zr364      Zr  0.24507369  0.10916471  0.88528689     2.84220
O365        O  0.26234245  0.07992367  0.87190362    -1.09000
O366        O  0.27386463  0.15722082  0.87531407    -1.08510
C367        C  0.26948879  0.16267268  0.92232012     1.06150
C368        C  0.20083436  0.04104678  0.86430767     1.08770
C369        C  0.30548781  0.22438652  0.86669013     1.06330
C370        C  0.35651617  0.14856513  0.91763716     1.06690
C371        C  0.28384580  0.03433625  0.85311945     1.06270
C372        C  0.23345414  0.10765722  0.80135873     1.05820
C373        C  0.20373799  0.13368156  0.86201126     1.06250
C374        C  0.25502664  0.06898301  0.92140552     1.05760
H375        H  0.22452066  0.10148905  0.84508663     0.32440
O376        O  0.24410330  0.10982381  0.84982113    -1.30100
H377        H  0.29271706  0.12599102  0.91157174     0.32460
O378        O  0.29222266  0.12642253  0.89693860    -1.31490
O379        O  0.40976585  0.41173629  0.97588584    -0.86930
O380        O  0.46896899  0.04427687  0.04260177    -0.87090
O381        O  0.38178039  0.46533101  0.01503635    -0.88760
O382        O  0.45785287  0.01063106  0.97714296    -0.87520
O383        O  0.00197198  0.01385661  0.97504967    -0.87110
O384        O  0.36979111  0.43615407  0.04309681    -0.88480
O385        O  0.44021671  0.02824361  0.01429047    -0.86960
O386        O  0.40324801  0.45094006  0.97741745    -0.86540
Zr387      Zr  0.43139040  0.48026314  0.00594977     2.84310
O388        O  0.47854431  0.00737229  0.01772622    -1.08520
O389        O  0.41188813  0.43289788  0.01742553    -1.09250
C390        C  0.39929709  0.42729313  0.96928857     1.06180
C391        C  0.45510282  0.04744689  0.02777306     1.06120
C392        C  0.36400019  0.44921059  0.02894584     1.09110
C393        C  0.48238817  0.01912141  0.96837028     1.06890
H394        H  0.42022536  0.48819274  0.04615359     0.32440
O395        O  0.43146376  0.47976350  0.04145270    -1.29470
H396        H  0.45831812  0.46082556  0.97834056     0.32120
O397        O  0.45851403  0.46065311  0.99298414    -1.31150
O398        O  0.00566572  0.00587263  0.08325345    -0.86920
O399        O  0.44939551  0.37534871  0.01405958    -0.88420
O400        O  0.40822042  0.46063313  0.08097089    -0.87000
O401        O  0.03869772  0.03866933  0.01318991    -0.87050
O402        O  0.00904891  0.46086209  0.97610951    -0.86760
O403        O  0.37392782  0.38493048  0.04059663    -0.86560
O404        O  0.46045986  0.40796467  0.07966757    -0.86940
O405        O  0.03578882  0.45327365  0.03996456    -0.86400
O406        O  0.41528195  0.40301654  0.08064806    -0.87460
O407        O  0.04761470  0.48376976  0.01254385    -0.86620
O408        O  0.44735200  0.00621002  0.07995251    -0.87020
O409        O  0.39122526  0.37335888  0.01254301    -0.86740
O410        O  0.46857428  0.41602880  0.97552393    -0.86390
O411        O  0.02542229  0.04801745  0.04405357    -0.86800
O412        O  0.01165395  0.46631266  0.08168762    -0.87100
O413        O  0.47811563  0.39115031  0.04232742    -0.88430
Zr414      Zr  0.47903236  0.00651957  0.05320687     2.83100
Zr415      Zr  0.43896691  0.41320891  0.00457885     2.83500
Zr416      Zr  0.41161345  0.43203602  0.05293407     2.84090
Zr417      Zr  0.00580006  0.48815465  0.00462874     2.83360
Zr418      Zr  0.48670283  0.43928029  0.05129996     2.84220
O419        O  0.48661189  0.44029812  0.01578814    -1.09000
O420        O  0.45926587  0.45883340  0.06436090    -1.08510
C421        C  0.01495696  0.48945399  0.09035187     1.06150
C422        C  0.46354097  0.37203229  0.02862099     1.08770
C423        C  0.42275700  0.48711431  0.08725659     1.06330
C424        C  0.04216801  0.05539281  0.02838034     1.06690
C425        C  0.49312515  0.43553870  0.96836265     1.06270
C426        C  0.37118930  0.36817364  0.02556798     1.05820
C427        C  0.43500600  0.39780330  0.08732476     1.06250
C428        C  0.05309257  0.46942816  0.02574842     1.05760
H429        H  0.43018969  0.39261284  0.04464180     0.32440
O430        O  0.43890022  0.41235544  0.04006369    -1.30100
H431        H  0.02636470  0.99851640  0.04516829     0.32460
O432        O  0.00680763  0.48730161  0.04033081    -1.31490
O433        O  0.34224599  0.18016139  0.41325681    -0.86930
O434        O  0.28872488  0.04636971  0.34907131    -0.87090
O435        O  0.29172526  0.07979401  0.41535358    -0.88760
O436        O  0.36671064  0.12022968  0.37278168    -0.87520
O437        O  0.37784544  0.14978398  0.34502794    -0.87110
O438        O  0.24554196  0.07216012  0.41464906    -0.88480
O439        O  0.31687950  0.06390831  0.37760354    -0.86960
O440        O  0.35039591  0.14208732  0.41193161    -0.86540
Zr441      Zr  0.31929823  0.10920065  0.38572586     2.84310
O442        O  0.31922088  0.10896324  0.35011727    -1.08520
O443        O  0.29076677  0.12789385  0.39766435    -1.09250
C444        C  0.35486031  0.16627192  0.41943122     1.06180
C445        C  0.30450562  0.04503607  0.36346464     1.06120
C446        C  0.26564726  0.06876316  0.42240910     1.09110
C447        C  0.38334530  0.13506267  0.35789300     1.06890
H448        H  0.26423546  0.06040923  0.37904725     0.32440
O449        O  0.27200866  0.07990290  0.37411992    -1.29470
H450        H  0.35763631  0.16795984  0.37760757     0.32120
O451        O  0.33789912  0.15623707  0.37327909    -1.31150
O452        O  0.23965533  0.07489112  0.31092940    -0.86920
O453        O  0.29510929  0.21024040  0.37525728    -0.88420
O454        O  0.20816204  0.04926648  0.37397407    -0.87000
O455        O  0.33901793  0.12972228  0.30790932    -0.87050
O456        O  0.37235636  0.20510530  0.34715753    -0.86760
O457        O  0.24046703  0.12646904  0.41453188    -0.86560
O458        O  0.21186101  0.13160176  0.34988428    -0.86940
O459        O  0.28758387  0.17608274  0.30978392    -0.86400
O460        O  0.20263447  0.10500540  0.37875168    -0.87460
O461        O  0.33337980  0.18283709  0.30957043    -0.86620
O462        O  0.22621850  0.03873096  0.34571870    -0.87020
O463        O  0.27982241  0.17229277  0.41412791    -0.86740
O464        O  0.35529878  0.21696492  0.37542899    -0.86390
O465        O  0.30082137  0.08344252  0.30875766    -0.86800
O466        O  0.23234309  0.11372058  0.31108213    -0.87100
O467        O  0.26595629  0.19217764  0.34724229    -0.88430
Zr468      Zr  0.27228864  0.08012954  0.33853268     2.83100
Zr469      Zr  0.30964422  0.17516896  0.38538351     2.83500
Zr470      Zr  0.24344445  0.09877642  0.38578786     2.84090
Zr471      Zr  0.33678450  0.15576158  0.33777825     2.83360
Zr472      Zr  0.26094543  0.14555950  0.33869567     2.84220
O473        O  0.30849277  0.17463558  0.34987254    -1.09000
O474        O  0.24319809  0.09839203  0.35040775    -1.08510
C475        C  0.22823997  0.08944303  0.30392852     1.06150
C476        C  0.27958004  0.21176316  0.36082418     1.08770
C477        C  0.20662514  0.03234012  0.35921103     1.06330
C478        C  0.32395928  0.10393408  0.30062592     1.06690
C479        C  0.37434563  0.22254564  0.36146295     1.06270
C480        C  0.25572001  0.15243174  0.42158917     1.05820
C481        C  0.19572561  0.11774652  0.36523456     1.06250
C482        C  0.31328143  0.18671222  0.30231327     1.05760
H483        H  0.25077333  0.15427829  0.37914981     0.32440
O484        O  0.26217206  0.14620735  0.37411091    -1.30100
H485        H  0.28902396  0.12683947  0.31169766     0.32460
O486        O  0.28952136  0.12701748  0.32634169    -1.31490
O487        O  0.20770845  0.37429240  0.68148560    -0.86930
O488        O  0.07578154  0.29348306  0.74875076    -0.87090
O489        O  0.13022375  0.37856870  0.71086798    -0.88760
O490        O  0.17505322  0.34536959  0.74728933    -0.87520
O491        O  0.17941739  0.30504479  0.74740557    -0.87110
O492        O  0.10138760  0.36233421  0.68267394    -0.88480
O493        O  0.11501983  0.33941508  0.74819797    -0.86960
O494        O  0.19082100  0.38467622  0.71047576    -0.86540
Zr495      Zr  0.14451262  0.34294877  0.71911593     2.84310
O496        O  0.12568535  0.29533771  0.73034329    -1.08520
O497        O  0.14351489  0.34460470  0.68366268    -1.09250
C498        C  0.21002112  0.39085789  0.69653248     1.06180
C499        C  0.09117305  0.31941882  0.75584392     1.06120
C500        C  0.11466803  0.38093183  0.69688249     1.09110
C501        C  0.18426022  0.32931418  0.75502326     1.06890
H502        H  0.08544402  0.32263637  0.71364943     0.32440
O503        O  0.09681698  0.31479186  0.70816683    -1.29470
H504        H  0.19250389  0.33596666  0.71093682     0.32120
O505        O  0.17290095  0.32465993  0.70622065    -1.31150
O506        O  0.04262408  0.21787585  0.70739753    -0.86920
O507        O  0.17549475  0.29909210  0.64212355    -0.88420
O508        O  0.04710616  0.30265792  0.68410099    -0.87000
O509        O  0.12722639  0.24566672  0.74615193    -0.87050
O510        O  0.20323605  0.29138945  0.70483939    -0.86760
O511        O  0.12057441  0.34613792  0.64359396    -0.86560
O512        O  0.07439198  0.24776062  0.64239745    -0.86940
O513        O  0.11805303  0.21346742  0.68075791    -0.86400
O514        O  0.06683520  0.28629082  0.64448172    -0.87460
O515        O  0.14786873  0.23034529  0.70855745    -0.86620
O516        O  0.03647279  0.27171811  0.71050923    -0.87020
O517        O  0.16614348  0.35213414  0.64220698    -0.86740
O518        O  0.21313503  0.32046009  0.67679790    -0.86390
O519        O  0.08096090  0.23706861  0.74579631    -0.86800
O520        O  0.05905669  0.20898545  0.67766672    -0.87100
O521        O  0.13538959  0.25433352  0.64087061    -0.88430
Zr522      Zr  0.07810504  0.26695008  0.71895423     2.83100
Zr523      Zr  0.17142659  0.32576358  0.67067712     2.83500
Zr524      Zr  0.09572859  0.31594932  0.67275242     2.84090
Zr525      Zr  0.15414767  0.27710625  0.71740352     2.83360
Zr526      Zr  0.10578492  0.25017452  0.67027914     2.84220
O527        O  0.15318675  0.27814266  0.68180642    -1.09000
O528        O  0.07729016  0.26821891  0.68349234    -1.08510
C529        C  0.04016146  0.20183172  0.69187246     1.06150
C530        C  0.16007647  0.27399712  0.63400437     1.08770
C531        C  0.02985861  0.28601306  0.69804465     1.06330
C532        C  0.10107573  0.23312761  0.75307471     1.06690
C533        C  0.21954013  0.30662634  0.68982539     1.06270
C534        C  0.14574521  0.35613678  0.63550541     1.05820
C535        C  0.06291527  0.26271093  0.63621639     1.06250
C536        C  0.13318727  0.21103962  0.69510785     1.05760
H537        H  0.12354071  0.29795804  0.64465966     0.32440
O538        O  0.12397529  0.29768288  0.65929697    -1.30100
H539        H  0.09847429  0.22944266  0.71031442     0.32460
O540        O  0.10661688  0.24913699  0.70578096    -1.31490
O541        O  0.12090104  0.24186626  0.14142058    -0.86930
O542        O  0.20141151  0.37627550  0.20771167    -0.87090
O543        O  0.17602396  0.34003012  0.14128380    -0.88760
O544        O  0.20578810  0.29624126  0.18084918    -0.87520
O545        O  0.18939158  0.27227490  0.21078851    -0.87110
O546        O  0.13845054  0.34899856  0.14141730    -0.88480
O547        O  0.21327468  0.35792445  0.18009014    -0.86960
O548        O  0.16729562  0.27990926  0.14230057    -0.86540
Zr549      Zr  0.17148627  0.31130060  0.17089849     2.84310
O550        O  0.17109959  0.31213658  0.20643111    -1.08520
O551        O  0.12457021  0.29295428  0.15864806    -1.09250
C552        C  0.14689206  0.25626848  0.13450162     1.06180
C553        C  0.21886001  0.37758191  0.19363134     1.06120
C554        C  0.16210401  0.35176625  0.13392060     1.09110
C555        C  0.20820339  0.28305721  0.19643910     1.06890
H556        H  0.16501520  0.36020969  0.17718264     0.32440
O557        O  0.15325489  0.34074586  0.18214358    -1.29470
H558        H  0.15034616  0.25280826  0.17828665     0.32120
O559        O  0.14232809  0.26440700  0.18300951    -1.31150
O560        O  0.12558010  0.34597332  0.24585281    -0.86920
O561        O  0.04673405  0.20935553  0.18174126    -0.88420
O562        O  0.11980945  0.37159465  0.17996990    -0.87000
O563        O  0.17263675  0.29259737  0.24728105    -0.87050
O564        O  0.12953853  0.21636177  0.20826522    -0.86760
O565        O  0.07872553  0.29595188  0.14044351    -0.86560
O566        O  0.04041634  0.28718857  0.20611641    -0.86940
O567        O  0.07167616  0.24444266  0.24579182    -0.86400
O568        O  0.05804711  0.31472398  0.17720833    -0.87460
O569        O  0.11129344  0.23917229  0.24750091    -0.86620
O570        O  0.14520207  0.38094307  0.20951628    -0.87020
O571        O  0.06675456  0.24888902  0.14250871    -0.86740
O572        O  0.10108512  0.20487227  0.17980796    -0.86390
O573        O  0.17988110  0.33862625  0.24634819    -0.86800
O574        O  0.07963934  0.30689084  0.24549941    -0.87100
O575        O  0.03544544  0.22755151  0.20963790    -0.88430
Zr576      Zr  0.15224305  0.34080378  0.21770966     2.83100
Zr577      Zr  0.09522434  0.24579548  0.17065797     2.83500
Zr578      Zr  0.10637487  0.32226737  0.16991814     2.84090
Zr579      Zr  0.14201462  0.26527494  0.21862576     2.83360
Zr580      Zr  0.07642373  0.27527194  0.21740122     2.84220
O581        O  0.09505257  0.24637431  0.20621905    -1.09000
O582        O  0.10534236  0.32243166  0.20542098    -1.08510
C583        C  0.09960921  0.33120215  0.25276221     1.06150
C584        C  0.02976593  0.20752442  0.19639561     1.08770
C585        C  0.13343361  0.38789424  0.19527261     1.06330
C586        C  0.18386437  0.31873050  0.25408649     1.06690
C587        C  0.11466716  0.19929825  0.19361855     1.06270
C588        C  0.06495333  0.26974500  0.13405398     1.05820
C589        C  0.03828327  0.30097862  0.19078532     1.06250
C590        C  0.08650667  0.23431469  0.25405539     1.05760
H591        H  0.05771334  0.26674043  0.17687628     0.32440
O592        O  0.07711736  0.27496521  0.18192148    -1.30100
H593        H  0.12297918  0.29421117  0.24471212     0.32460
O594        O  0.12322118  0.29394278  0.23006300    -1.31490
O595        O  0.45824228  0.01354141  0.57973691    -0.86930
O596        O  0.38137238  0.37865662  0.51711236    -0.87090
O597        O  0.37523520  0.45577579  0.54237208    -0.88760
O598        O  0.41097388  0.41196126  0.58037099    -0.87520
O599        O  0.45062150  0.40614317  0.57888750    -0.87110
O600        O  0.39182968  0.48464192  0.51410999    -0.88480
O601        O  0.37034576  0.39744143  0.54460937    -0.86960
O602        O  0.41288479  0.47355585  0.58006949    -0.86540
Zr603      Zr  0.41190622  0.44336483  0.55240651     2.84310
O604        O  0.43062298  0.41539359  0.53965216    -1.08520
O605        O  0.43979973  0.49083624  0.54073415    -1.09250
C606        C  0.43215893  0.99838634  0.58674469     1.06180
C607        C  0.36461750  0.37705206  0.53190360     1.06120
C608        C  0.37270474  0.47071493  0.52789904     1.09110
C609        C  0.42664311  0.40129389  0.58672827     1.06890
H610        H  0.39103528  0.43507694  0.51224465     0.32440
O611        O  0.41066911  0.44331287  0.51686056    -1.29470
H612        H  0.45955734  0.46208966  0.57846570     0.32120
O613        O  0.45933159  0.46226130  0.56381502    -1.31150
O614        O  0.45546750  0.41101648  0.47521769    -0.86920
O615        O  0.03730940  0.04328044  0.54175268    -0.88420
O616        O  0.40892677  0.46443333  0.47594498    -0.87000
O617        O  0.46095567  0.38413175  0.54175589    -0.87050
O618        O  0.00737010  0.45915127  0.57962839    -0.86760
O619        O  0.45379721  0.04079035  0.51576449    -0.86560
O620        O  0.00780967  0.01357092  0.47550589    -0.86940
O621        O  0.04152725  0.47037604  0.51238568    -0.86400
O622        O  0.46829268  0.01960043  0.47680978    -0.87460
O623        O  0.02531387  0.44161442  0.54073724    -0.86620
O624        O  0.40150842  0.41823036  0.47616037    -0.87020
O625        O  0.48551006  0.05225191  0.54213156    -0.86740
O626        O  0.01522150  0.00528780  0.57997459    -0.86390
O627        O  0.43316594  0.37284509  0.51320874    -0.86800
O628        O  0.00071636  0.45105367  0.47438575    -0.87100
O629        O  0.04581427  0.02791004  0.51141352    -0.88430
Zr630      Zr  0.42919867  0.41493640  0.50428288     2.83100
Zr631      Zr  0.48735468  0.00953965  0.55197110     2.83500
Zr632      Zr  0.43861624  0.99095258  0.50514868     2.84090
Zr633      Zr  0.47819631  0.43448611  0.55029595     2.83360
Zr634      Zr  0.00430879  0.48159930  0.50308864     2.84220
O635        O  0.00594536  0.48168171  0.53860477    -1.09000
O636        O  0.45677212  0.46241473  0.49210325    -1.08510
C637        C  0.48095355  0.42639680  0.46753248     1.06150
C638        C  0.05342699  0.04592052  0.52627196     1.08770
C639        C  0.39799155  0.43856783  0.46867520     1.06330
C640        C  0.44533368  0.36654673  0.52764460     1.06690
C641        C  0.01879309  0.98474705  0.58713841     1.06270
C642        C  0.47123315  0.05839939  0.52933732     1.05820
C643        C  0.99257812  0.02457903  0.46922349     1.06250
C644        C  0.04426016  0.45575612  0.52686908     1.05760
H645        H  0.99745599  0.02921747  0.51156195     0.32440
O646        O  0.48594425  0.00964776  0.51637720    -1.30100
H647        H  0.48507463  0.42246483  0.50980307     0.32460
O648        O  0.47712638  0.43398956  0.51484022    -1.31490
C649        C  0.01462185  0.06043447  0.94460634    -0.02290
C650        C  0.48769149  0.03563788  0.94898865     0.07390
C651        C  0.46499135  0.02699252  0.93484461    -0.02400
C652        C  0.46867619  0.04325791  0.91721232    -0.02400
C653        C  0.49475038  0.06912260  0.91354707     0.07530
C654        C  0.01779761  0.07750954  0.92733833    -0.02600
Br655      Br  0.05329624  0.11351934  0.92347542    -0.01150
Br656      Br  0.04731409  0.07201202  0.96230190    -0.01220
Br657      Br  0.43783065  0.02876168  0.89771369    -0.01180
Br658      Br  0.42863926  0.99182876  0.93860780    -0.01160
C659        C  0.40336696  0.09362795  0.86473652    -0.02290
C660        C  0.40408784  0.12026216  0.86618094     0.07390
C661        C  0.43029988  0.14518570  0.87139886    -0.02400
C662        C  0.45570946  0.14358422  0.87362143    -0.02400
C663        C  0.45493526  0.11717192  0.87031945     0.07530
C664        C  0.42899002  0.09280140  0.86451101    -0.02600
Br665      Br  0.42863289  0.05869973  0.85465359    -0.01150
Br666      Br  0.36795279  0.05758523  0.86755304    -0.01220
Br667      Br  0.99134020  0.17718679  0.88138049    -0.01180
Br668      Br  0.43011873  0.17959854  0.87967949    -0.01160
C669        C  0.07303361  0.20879317  0.78553109    -0.02290
C670        C  0.09342859  0.21209467  0.77032636     0.07390
C671        C  0.10561611  0.19392165  0.77143561    -0.02400
C672        C  0.09585789  0.17204206  0.78616334    -0.02400
C673        C  0.08000929  0.17237934  0.80318725     0.07530
C674        C  0.06899081  0.19154541  0.80286163    -0.02600
Br675      Br  0.05016589  0.19638626  0.82640461    -0.01150
Br676      Br  0.04948576  0.22663085  0.78317300    -0.01220
Br677      Br  0.10072650  0.13937246  0.78105553    -0.01180
Br678      Br  0.13590004  0.19781647  0.75338511    -0.01160
C679        C  0.16089002  0.13721495  0.87517800    -0.02290
C680        C  0.17497956  0.13119534  0.85938211     0.07390
C681        C  0.16050588  0.12132013  0.84073851    -0.02400
C682        C  0.13421465  0.12037147  0.83744178    -0.02400
C683        C  0.12431453  0.13338423  0.85140758     0.07530
C684        C  0.13738712  0.14118720  0.87069835    -0.02600
Br685      Br  0.12394802  0.15784618  0.89090865    -0.01150
Br686      Br  0.16953496  0.13463935  0.90304705    -0.01220
Br687      Br  0.10976021  0.09738222  0.81552162    -0.01180
Br688      Br  0.17456411  0.10571538  0.82051766    -0.01160
C689        C  0.02531634  0.28179716  0.09018999    -0.02290
C690        C  0.00759623  0.25366898  0.08222438     0.07390
C691        C  0.00889758  0.23057899  0.09178806    -0.02400
C692        C  0.03008658  0.23619944  0.10665384    -0.02400
C693        C  0.04517279  0.26377191  0.11612099     0.07530
C694        C  0.04014883  0.28580988  0.10850427    -0.02600
Br695      Br  0.05001415  0.32117524  0.12319072    -0.01150
Br696      Br  0.03304876  0.31642835  0.07582727    -0.01220
Br697      Br  0.03842106  0.20570884  0.11249784    -0.01180
Br698      Br  0.48003916  0.19078866  0.08667179    -0.01160
C699        C  0.48710100  0.31615173  0.03206280    -0.02290
C700        C  0.46101757  0.29113300  0.03696102     0.07390
C701        C  0.43509677  0.29167041  0.03611250    -0.02400
C702        C  0.43569895  0.31774213  0.03155424    -0.02400
C703        C  0.46244147  0.34384824  0.03011183     0.07530
C704        C  0.48818397  0.34278998  0.03061284    -0.02600
Br705      Br  0.02518849  0.37742718  0.02978740    -0.01150
Br706      Br  0.02061647  0.31332395  0.02498857    -0.01220
Br707      Br  0.39985733  0.31731448  0.02772343    -0.01180
Br708      Br  0.39907520  0.25677143  0.04108629    -0.01160
C709        C  0.44167039  0.11017039  0.03272184    -0.02290
C710        C  0.45854919  0.12785447  0.01644702     0.07390
C711        C  0.47609757  0.12016053  0.00525240    -0.02400
C712        C  0.47516133  0.09396594  0.00928842    -0.02400
C713        C  0.45769189  0.07592828  0.02508492     0.07530
C714        C  0.44200323  0.08467077  0.03740650    -0.02600
Br715      Br  0.42056802  0.06132600  0.06033448    -0.01150
Br716      Br  0.41619438  0.11934718  0.04759046    -0.01220
Br717      Br  0.99833823  0.08302472  0.99338860    -0.01180
Br718      Br  0.00151359  0.14557766  0.98443023    -0.01160
C719        C  0.37672472  0.13166316  0.94594615    -0.02290
C720        C  0.37812950  0.15459615  0.93419775     0.07390
C721        C  0.40037921  0.18313446  0.93879615    -0.02400
C722        C  0.41924844  0.18820198  0.95526874    -0.02400
C723        C  0.41391657  0.16564318  0.96893659     0.07530
C724        C  0.39131725  0.13749982  0.96449782    -0.02600
Br725      Br  0.37768532  0.10662927  0.98428139    -0.01150
Br726      Br  0.35979466  0.09237113  0.93605403    -0.01220
Br727      Br  0.45346120  0.22570353  0.95800805    -0.01180
Br728      Br  0.40785031  0.21541396  0.92155347    -0.01160
C729        C  0.46542101  0.28032690  0.16859724    -0.02290
C730        C  0.45692187  0.29624608  0.18088267     0.07390
C731        C  0.47441143  0.31263962  0.19723414    -0.02400
C732        C  0.00083906  0.31377761  0.20085332    -0.02400
C733        C  0.01015382  0.29919855  0.18780341     0.07530
C734        C  0.49186967  0.28167320  0.17215245    -0.02600
Br735      Br  0.00209523  0.25804457  0.15630928    -0.01150
Br736      Br  0.44065327  0.25662354  0.14693873    -0.01220
Br737      Br  0.02420221  0.33525139  0.22360167    -0.01180
Br738      Br  0.46272677  0.33453523  0.21409743    -0.01160
C739        C  0.39892148  0.33087120  0.12077091    -0.02290
C740        C  0.41431259  0.34138321  0.13902080     0.07390
C741        C  0.43672954  0.37030363  0.14021987    -0.02400
C742        C  0.44422726  0.38832048  0.12311692    -0.02400
C743        C  0.42795379  0.37838385  0.10512081     0.07530
C744        C  0.40598815  0.34926199  0.10384279    -0.02600
Br745      Br  0.38943714  0.33322427  0.07796668    -0.01150
Br746      Br  0.36963151  0.29073257  0.11847831    -0.01220
Br747      Br  0.47875043  0.42531881  0.12395930    -0.01180
Br748      Br  0.45742514  0.38523888  0.16538738    -0.01160
C749        C  0.34478039  0.23194015  0.28226499    -0.02290
C750        C  0.32004097  0.20408099  0.28357452     0.07390
C751        C  0.30242201  0.19213648  0.26636225    -0.02400
C752        C  0.31001736  0.20750225  0.24808490    -0.02400
C753        C  0.33157828  0.23675726  0.24775748     0.07530
C754        C  0.34939952  0.24892002  0.26479801    -0.02600
Br755      Br  0.37972822  0.28872499  0.26428319    -0.01150
Br756      Br  0.37201600  0.24746115  0.30433149    -0.01220
Br757      Br  0.29385519  0.18734553  0.22301305    -0.01180
Br758      Br  0.26829375  0.15442110  0.26719702    -0.01160
C759        C  0.23227298  0.25526124  0.20822515    -0.02290
C760        C  0.23417991  0.27958061  0.19808803     0.07390
C761        C  0.26132663  0.30041621  0.18988526    -0.02400
C762        C  0.28600284  0.29787102  0.19327787    -0.02400
C763        C  0.28312886  0.27216705  0.20157583     0.07530
C764        C  0.25540504  0.25008941  0.20739323    -0.02600
Br765      Br  0.24753521  0.21137976  0.21260113    -0.01150
Br766      Br  0.19963663  0.22907038  0.22495068    -0.01220
Br767      Br  0.32363818  0.33094813  0.18812059    -0.01180
Br768      Br  0.26622932  0.33369149  0.17493356    -0.01160
C769        C  0.16301553  0.41925309  0.60106509    -0.02290
C770        C  0.16153746  0.40712991  0.58180463     0.07390
C771        C  0.15472980  0.37813445  0.58015383    -0.02400
C772        C  0.14971271  0.36138960  0.59775187    -0.02400
C773        C  0.15153936  0.37366096  0.61703483     0.07530
C774        C  0.15747530  0.40236832  0.61860903    -0.02600
Br775      Br  0.15638356  0.41805630  0.64470959    -0.01150
Br776      Br  0.17246766  0.45900597  0.60336933    -0.01220
Br777      Br  0.13770578  0.32098348  0.59527676    -0.01180
Br778      Br  0.15076950  0.36098843  0.55371781    -0.01160
C779        C  0.09747146  0.42951111  0.52196785    -0.02290
C780        C  0.11919671  0.44837438  0.53534674     0.07390
C781        C  0.11781898  0.47165906  0.54416514    -0.02400
C782        C  0.09376714  0.47495667  0.54066838    -0.02400
C783        C  0.07136712  0.45522965  0.52801046     0.07530
C784        C  0.07397366  0.43348790  0.51785875    -0.02600
Br785      Br  0.04573339  0.40973514  0.49799297    -0.01150
Br786      Br  0.09940244  0.39761311  0.50996894    -0.01220
Br787      Br  0.09146524  0.00636598  0.55339076    -0.01180
Br788      Br  0.14866228  0.99865533  0.56138435    -0.01160
C789        C  0.27099277  0.06304583  0.45952464    -0.02290
C790        C  0.25809240  0.05063543  0.44086085     0.07390
C791        C  0.23724253  0.02101162  0.44017932    -0.02400
C792        C  0.23404987  0.50307414  0.45677774    -0.02400
C793        C  0.24971435  0.01516714  0.47473681     0.07530
C794        C  0.26672097  0.04540226  0.47647452    -0.02600
Br795      Br  0.28238854  0.06279202  0.50237596    -0.01150
Br796      Br  0.29052690  0.10426866  0.46258630    -0.01220
Br797      Br  0.20846274  0.46195550  0.45479499    -0.01180
Br798      Br  0.21091385  0.00559328  0.41768246    -0.01160
C799        C  0.31879362  0.44575493  0.52420153    -0.02290
C800        C  0.34552431  0.47156101  0.52642095     0.07390
C801        C  0.34641551  0.49833496  0.52528180    -0.02400
C802        C  0.32078764  0.49922317  0.52349342    -0.02400
C803        C  0.29445935  0.47376494  0.51969040     0.07530
C804        C  0.29356427  0.44693007  0.52000639    -0.02600
Br805      Br  0.25842417  0.41197549  0.51318128    -0.01150
Br806      Br  0.31708437  0.40883217  0.52455120    -0.01220
Br807      Br  0.32189840  0.03551399  0.52732514    -0.01180
Br808      Br  0.38269876  0.03424316  0.52476532    -0.01160
C809        C  0.13415636  0.45922582  0.69189231    -0.02290
C810        C  0.10656933  0.45650128  0.69059096     0.07390
C811        C  0.08181576  0.42930376  0.69347428    -0.02400
C812        C  0.08448111  0.40466298  0.69591423    -0.02400
C813        C  0.11198712  0.40717223  0.69671351     0.07530
C814        C  0.13684295  0.43477113  0.69564494    -0.02600
Br815      Br  0.17479014  0.43917741  0.69793042    -0.01150
Br816      Br  0.16843154  0.49588323  0.68664976    -0.01220
Br817      Br  0.05008784  0.36756461  0.69823864    -0.01180
Br818      Br  0.04411421  0.42578030  0.69426136    -0.01160
C819        C  0.05211509  0.01068003  0.63957887    -0.02290
C820        C  0.07352225  0.00253681  0.63973476     0.07390
C821        C  0.07696269  0.98893301  0.62247271    -0.02400
C822        C  0.05726916  0.48051762  0.60640100    -0.02400
C823        C  0.03745633  0.99076984  0.60533312     0.07530
C824        C  0.03526534  0.00620494  0.62206763    -0.02600
Br825      Br  0.00694392  0.01852114  0.62224315    -0.01150
Br826      Br  0.04379165  0.02571836  0.66378888    -0.01220
Br827      Br  0.05640274  0.45240535  0.58751044    -0.01180
Br828      Br  0.10959990  0.48286709  0.62020909    -0.01160
C829        C  0.11023028  0.13356240  0.70817148    -0.02290
C830        C  0.13462461  0.13213621  0.70185693     0.07390
C831        C  0.15837898  0.15651185  0.69327201    -0.02400
C832        C  0.15796856  0.18238536  0.69134243    -0.02400
C833        C  0.13323576  0.18363987  0.69683999     0.07530
C834        C  0.10972952  0.15947066  0.70599634    -0.02600
Br835      Br  0.07923299  0.16324587  0.71871517    -0.01150
Br836      Br  0.07847606  0.10068388  0.72113346    -0.01220
Br837      Br  0.19261065  0.21683573  0.68363324    -0.01180
Br838      Br  0.19199754  0.15467573  0.68480912    -0.01160
C839        C  0.17727952  0.06695578  0.75927651    -0.02290
C840        C  0.17434205  0.08969973  0.75066506     0.07390
C841        C  0.18647449  0.11566135  0.76190015    -0.02400
C842        C  0.20956353  0.12306698  0.77494328    -0.02400
C843        C  0.21458520  0.10134675  0.78288806     0.07530
C844        C  0.19767326  0.07276914  0.77488388    -0.02600
Br845      Br  0.20125225  0.04037813  0.78444901    -0.01150
Br846      Br  0.14814589  0.02693746  0.75494231    -0.01220
Br847      Br  0.23279362  0.16378374  0.78107455    -0.01180
Br848      Br  0.16375527  0.13359213  0.76841632    -0.01160
C849        C  0.28806742  0.46851323  0.37298707    -0.02290
C850        C  0.31392301  0.46987340  0.36685859     0.07390
C851        C  0.33722427  0.49632142  0.36016896    -0.02400
C852        C  0.33427756  0.02103756  0.35900128    -0.02400
C853        C  0.30798649  0.01932817  0.36439870     0.07530
C854        C  0.28571563  0.49348064  0.37256431    -0.02600
Br855      Br  0.25473840  0.49380930  0.38690621    -0.01150
Br856      Br  0.25650569  0.43294774  0.38345654    -0.01220
Br857      Br  0.36710849  0.05772259  0.35210105    -0.01180
Br858      Br  0.37334270  0.49875011  0.35315949    -0.01160
C859        C  0.37104431  0.41746974  0.41452810    -0.02290
C860        C  0.34717765  0.42185387  0.41450734     0.07390
C861        C  0.33898601  0.42990877  0.43265089    -0.02400
C862        C  0.35568129  0.43550127  0.45027733    -0.02400
C863        C  0.37992030  0.43173319  0.45025039     0.07530
C864        C  0.38704436  0.42188967  0.43243960    -0.02600
Br865      Br  0.41980203  0.41610479  0.43206461    -0.01150
Br866      Br  0.38303691  0.40718265  0.38973031    -0.01220
Br867      Br  0.34488244  0.44800178  0.47450966    -0.01180
Br868      Br  0.30435114  0.43262852  0.43354292    -0.01160
C869        C  0.29218316  0.28298647  0.33998099    -0.02290
C870        C  0.27596966  0.28985099  0.35328937     0.07390
C871        C  0.26218549  0.27184509  0.37012364    -0.02400
C872        C  0.26437752  0.24687194  0.37329015    -0.02400
C873        C  0.27844832  0.23875508  0.35879191     0.07530
C874        C  0.29155682  0.25661706  0.34184031    -0.02600
Br875      Br  0.30789223  0.24483876  0.32053467    -0.01150
Br876      Br  0.31729270  0.31071999  0.32020862    -0.01220
Br877      Br  0.24689789  0.22308366  0.39679007    -0.01180
Br878      Br  0.23997467  0.28115527  0.38849547    -0.01160
C879        C  0.21443764  0.34155663  0.30749649    -0.02290
C880        C  0.23752546  0.33590830  0.30702029     0.07390
C881        C  0.24458679  0.32770911  0.28845697    -0.02400
C882        C  0.22668446  0.32145051  0.27144966    -0.02400
C883        C  0.20320097  0.32638612  0.27198432     0.07530
C884        C  0.19843619  0.33836424  0.28971800    -0.02600
Br885      Br  0.17032636  0.35072696  0.28988429    -0.01150
Br886      Br  0.20348039  0.35211094  0.33263069    -0.01220
Br887      Br  0.23546611  0.30718526  0.24717520    -0.01180
Br888      Br  0.28008808  0.32724091  0.28554851    -0.01160
C889        C  0.41434068  0.01623418  0.13802307    -0.02290
C890        C  0.38400074  0.50275663  0.13970778     0.07390
C891        C  0.36708394  0.48900550  0.12243074    -0.02400
C892        C  0.37970490  0.48434551  0.10513135    -0.02400
C893        C  0.40989275  0.49594035  0.10405779     0.07530
C894        C  0.42710396  0.01531108  0.11951737    -0.02600
Br895      Br  0.46719286  0.04362612  0.11507594    -0.01150
Br896      Br  0.43899779  0.03399619  0.16121547    -0.01220
Br897      Br  0.35547934  0.46469683  0.08214905    -0.01180
Br898      Br  0.32687780  0.47817682  0.12174464    -0.01160
C899        C  0.25080754  0.42828808  0.18179847    -0.02290
C900        C  0.24741183  0.40404790  0.19259773     0.07390
C901        C  0.27149586  0.40499299  0.20194041    -0.02400
C902        C  0.29916794  0.42924914  0.19936114    -0.02400
C903        C  0.30262095  0.45315508  0.18817361     0.07530
C904        C  0.27828739  0.45288009  0.17980293    -0.02600
Br905      Br  0.28273303  0.48609988  0.16515094    -0.01150
Br906      Br  0.21800582  0.42774123  0.16926490    -0.01220
Br907      Br  0.33241035  0.42975470  0.21089716    -0.01180
Br908      Br  0.26638481  0.37344735  0.21877725    -0.01160
C909        C  0.34925824  0.10915394  0.24601574    -0.02290
C910        C  0.35749838  0.08798179  0.24565999     0.07390
C911        C  0.35325973  0.07093127  0.26304112    -0.02400
C912        C  0.34036202  0.07475357  0.28053482    -0.02400
C913        C  0.33415794  0.09747887  0.28142430     0.07530
C914        C  0.33890556  0.11477999  0.26407317    -0.02600
Br915      Br  0.33150497  0.14642996  0.26477146    -0.01150
Br916      Br  0.35183454  0.13019215  0.22157529    -0.01220
Br917      Br  0.33327668  0.05007898  0.30370349    -0.01180
Br918      Br  0.36747101  0.04412282  0.26357911    -0.01160
C919        C  0.46777890  0.13983089  0.21997309    -0.02290
C920        C  0.44711472  0.13007057  0.20438195     0.07390
C921        C  0.45430366  0.14456166  0.18554328    -0.02400
C922        C  0.48179376  0.16899603  0.18252063    -0.02400
C923        C  0.50176900  0.18010355  0.19864006     0.07530
C924        C  0.49462639  0.16499083  0.21726983    -0.02600
Br925      Br  0.02181389  0.17768990  0.23913122    -0.01150
Br926      Br  0.45963138  0.11815035  0.24496938    -0.01220
Br927      Br  0.49135753  0.18750510  0.15641225    -0.01180
Br928      Br  0.42589705  0.13212048  0.16423149    -0.01160
C929        C  0.41725219  0.12797606  0.33539282    -0.02290
C930        C  0.41046903  0.13440210  0.35479251     0.07390
C931        C  0.42942612  0.13944233  0.37110041    -0.02400
C932        C  0.45535499  0.13926434  0.36777233    -0.02400
C933        C  0.46142739  0.13184363  0.34845425     0.07530
C934        C  0.44141288  0.12471820  0.33265672    -0.02600
Br935      Br  0.44658028  0.10953128  0.30725972    -0.01150
Br936      Br  0.39450687  0.12425521  0.31192689    -0.01220
Br937      Br  0.48325457  0.15149300  0.38943300    -0.01180
Br938      Br  0.42136457  0.14928110  0.39762572    -0.01160
C939        C  0.06649890  0.17511420  0.29384224    -0.02290
C940        C  0.05217573  0.18277100  0.30853842     0.07390
C941        C  0.04943447  0.20728743  0.30516650    -0.02400
C942        C  0.05664158  0.22104210  0.28627025    -0.02400
C943        C  0.07412125  0.21596865  0.27254138     0.07530
C944        C  0.07885808  0.19257963  0.27651190    -0.02600
Br945      Br  0.09830230  0.18115823  0.25692310    -0.01150
Br946      Br  0.06720880  0.13944297  0.29622009    -0.01220
Br947      Br  0.03706395  0.24186996  0.27886061    -0.01180
Br948      Br  0.03651904  0.22301160  0.32659304    -0.01160
C949        C  0.02979987  0.07162481  0.45461453    -0.02290
C950        C  0.00427120  0.04491251  0.45211681     0.07390
C951        C  0.99054044  0.03735307  0.43312376    -0.02400
C952        C  0.00362357  0.05531989  0.41624322    -0.02400
C953        C  0.02973083  0.08175715  0.41859860     0.07530
C954        C  0.04213271  0.09031476  0.43799627    -0.02600
Br955      Br  0.07589606  0.12777487  0.44182187    -0.01150
Br956      Br  0.04787453  0.08275976  0.48085204    -0.01220
Br957      Br  0.98680231  0.04218118  0.38971649    -0.01180
Br958      Br  0.45450365  0.50165335  0.43004833    -0.01160
C959        C  0.11627323  0.08885558  0.37701419    -0.02290
C960        C  0.11218857  0.11190361  0.37124874     0.07390
C961        C  0.13597052  0.13740977  0.36352472    -0.02400
C962        C  0.16284246  0.13891922  0.36060756    -0.02400
C963        C  0.16721732  0.11633285  0.36774964     0.07530
C964        C  0.14409373  0.09285745  0.37813776    -0.02600
Br965      Br  0.14949512  0.06910351  0.39784317    -0.01150
Br966      Br  0.08382885  0.05093218  0.38275351    -0.01220
Br967      Br  0.19433333  0.17423247  0.34964792    -0.01180
Br968      Br  0.13300072  0.17147140  0.35855030    -0.01160
C969        C  0.28233324  0.41471070  0.03030821    -0.02290
C970        C  0.27903514  0.43918846  0.03180032     0.07390
C971        C  0.30364694  0.46704278  0.03075055    -0.02400
C972        C  0.33128636  0.47026055  0.02876293    -0.02400
C973        C  0.33472081  0.44574540  0.02884319     0.07530
C974        C  0.31002009  0.41797067  0.02929805    -0.02600
Br975      Br  0.31360970  0.38402328  0.02800804    -0.01150
Br976      Br  0.24876003  0.37651371  0.02937173    -0.01220
Br977      Br  0.36447317  0.00855946  0.02723714    -0.01180
Br978      Br  0.30011298  0.00109798  0.03376039    -0.01160
C979        C  0.21518769  0.41052289  0.09852412    -0.02290
C980        C  0.19832453  0.40613785  0.08109883     0.07390
C981        C  0.16914663  0.38387497  0.08114286    -0.02400
C982        C  0.15708499  0.36670924  0.09860746    -0.02400
C983        C  0.17458191  0.37008556  0.11556838     0.07530
C984        C  0.20430782  0.39084275  0.11466285    -0.02600
Br985      Br  0.23169473  0.39080083  0.13359973    -0.01150
Br986      Br  0.25297385  0.44435967  0.10083743    -0.00200
Br987      Br  0.11757256  0.33579682  0.09795789    -0.01180
Br988      Br  0.14596226  0.37508145  0.05692619    -0.01160
C989        C  0.20174386  0.51157231  0.95720520    -0.02290
C990        C  0.21884516  0.01500446  0.97436401     0.07390
C991        C  0.24804298  0.03714216  0.97435673    -0.02400
C992        C  0.26010162  0.05435252  0.95688744    -0.02400
C993        C  0.24264759  0.05115840  0.93998332     0.07530
C994        C  0.21260785  0.03184046  0.94151081    -0.02600
Br995      Br  0.18475880  0.53528996  0.92485145    -0.01150
Br996      Br  0.16358713  0.47838537  0.95430490    -0.01220
Br997      Br  0.29898995  0.08595126  0.95774934    -0.01180
Br998      Br  0.27106112  0.04575628  0.99861341    -0.01160
C999        C  0.10554426  0.49210255  0.03420042    -0.02290
C1000       C  0.08118148  0.47086775  0.02382239     0.07390
C1001       C  0.08403698  0.45190018  0.01044687    -0.02400
C1002       C  0.11027316  0.45208394  0.00904471    -0.02400
C1003       C  0.13448053  0.47291201  0.01975841     0.07530
C1004       C  0.13216319  0.49307205  0.03220834    -0.02600
Br1005     Br  0.16581722  0.02257334  0.04592589    -0.01150
Br1006     Br  0.10340280  0.02194642  0.04905744    -0.01220
Br1007     Br  0.11332443  0.42447291  0.99185901    -0.01180
Br1008     Br  0.05337898  0.42863155  0.99194335    -0.01160
C1009       C  0.18722771  0.28876563  0.60064189    -0.02290
C1010       C  0.17172654  0.26724675  0.61546853     0.07390
C1011       C  0.16839855  0.23940365  0.61266552    -0.02400
C1012       C  0.18140221  0.23393562  0.59586787    -0.02400
C1013       C  0.19436484  0.25476805  0.58029431     0.07530
C1014       C  0.19496208  0.28130493  0.58222962    -0.02600
Br1015     Br  0.20567350  0.30753929  0.55945354    -0.01150
Br1016     Br  0.20242633  0.32946255  0.60571887    -0.01220
Br1017     Br  0.18381165  0.19903808  0.59560250    -0.01180
Br1018     Br  0.14975194  0.20958302  0.63304952    -0.01160
C1019       C  0.30480221  0.31087835  0.55831997    -0.02290
C1020       C  0.28669149  0.29534713  0.54204184     0.07390
C1021       C  0.29423343  0.30676476  0.52215355    -0.02400
C1022       C  0.31998896  0.33306345  0.51868613    -0.02400
C1023       C  0.33715100  0.34942804  0.53524381     0.07530
C1024       C  0.32805259  0.33880371  0.55525173    -0.02600
Br1025     Br  0.34438468  0.36242220  0.57916580    -0.01150
Br1026     Br  0.29814758  0.29367290  0.58506172    -0.01220
Br1027     Br  0.32957039  0.34810561  0.49135711    -0.01180
Br1028     Br  0.26841788  0.28799751  0.49967690    -0.01160
C1029       C  0.11524844  0.12390726  0.52811525    -0.02290
C1030       C  0.13913944  0.12059900  0.52306046     0.07390
C1031       C  0.13472754  0.09264615  0.51969246    -0.02400
C1032       C  0.10668021  0.06892234  0.51865511    -0.02400
C1033       C  0.08293069  0.07164593  0.52528499     0.07530
C1034       C  0.08758031  0.09942758  0.53027561    -0.02600
Br1035     Br  0.05565191  0.10496742  0.53751890    -0.01150
Br1036     Br  0.11932931  0.16184885  0.53024893    -0.01220
Br1037     Br  0.10194574  0.03427930  0.50581469    -0.01180
Br1038     Br  0.16720301  0.08638933  0.51710165    -0.01160
C1039       C  0.24845609  0.17334957  0.47540156    -0.02290
C1040       C  0.22093862  0.17086186  0.47468842     0.07390
C1041       C  0.20619130  0.16491738  0.45605849    -0.02400
C1042       C  0.21753843  0.15878112  0.43873956    -0.02400
C1043       C  0.24448887  0.16017006  0.43959661     0.07530
C1044       C  0.26061751  0.16905397  0.45769742    -0.02600
Br1045     Br  0.29912771  0.17473521  0.45849461    -0.01150
Br1046     Br  0.26880437  0.18045866  0.50081820    -0.01220
Br1047     Br  0.19638710  0.14943160  0.41369475    -0.01180
Br1048     Br  0.17070654  0.16590226  0.45411808    -0.01160
C1049       C  0.32784002  0.22815982  0.77813675    -0.02290
C1050       C  0.33116929  0.20373970  0.78163861     0.07390
C1051       C  0.34238319  0.19455679  0.76562214    -0.02400
C1052       C  0.35106458  0.21017291  0.74743245    -0.02400
C1053       C  0.35487980  0.23806538  0.74654154     0.07530
C1054       C  0.34221897  0.24674800  0.76165682    -0.02600
Br1055     Br  0.34441850  0.28378286  0.75984993    -0.01150
Br1056     Br  0.30143490  0.23507916  0.79374604    -0.01220
Br1057     Br  0.35283073  0.19158548  0.72275971    -0.01180
Br1058     Br  0.34508796  0.16016814  0.76736147    -0.01160
C1059       C  0.46498394  0.29777559  0.69174847    -0.02290
C1060       C  0.44406839  0.27655334  0.70488906     0.07390
C1061       C  0.45227097  0.25861446  0.71536621    -0.02400
C1062       C  0.48119045  0.26553588  0.71580021    -0.02400
C1063       C  0.50042435  0.28305999  0.70024730     0.07530
C1064       C  0.49059830  0.29744985  0.68711324    -0.02600
Br1065     Br  0.00961313  0.31518272  0.66180517    -0.01150
Br1066     Br  0.46193111  0.33022958  0.68201397    -0.01220
Br1067     Br  0.49277677  0.25175506  0.73920440    -0.01180
Br1068     Br  0.42487621  0.22174005  0.72680380    -0.01160
C1069       C  0.27196196  0.32603916  0.69812772    -0.02290
C1070       C  0.24748074  0.30765066  0.68652851     0.07390
C1071       C  0.25041918  0.29199506  0.67033485    -0.02400
C1072       C  0.27632563  0.29185225  0.66734170    -0.02400
C1073       C  0.30032777  0.30907688  0.67958728     0.07530
C1074       C  0.29829436  0.32660911  0.69476729    -0.02600
Br1075     Br  0.33197426  0.35227600  0.71026876    -0.01150
Br1076     Br  0.27046429  0.35325470  0.71648699    -0.01220
Br1077     Br  0.27909425  0.26817436  0.64628329    -0.01180
Br1078     Br  0.22025482  0.27324975  0.65074280    -0.01160
C1079       C  0.41135489  0.37428896  0.64080989    -0.02290
C1080       C  0.38901910  0.34567422  0.63776730     0.07390
C1081       C  0.38309615  0.33397356  0.61805072    -0.02400
C1082       C  0.39686597  0.35189205  0.60127290    -0.02400
C1083       C  0.41610097  0.38151603  0.60424257     0.07530
C1084       C  0.42577228  0.39180607  0.62397077    -0.02600
Br1085     Br  0.46088422  0.42801079  0.62766128    -0.01150
Br1086     Br  0.42182358  0.38948580  0.66791483    -0.01220
Br1087     Br  0.39158546  0.33561418  0.57446630    -0.01180
Br1088     Br  0.35644947  0.29342039  0.61420546    -0.01160
C1089       C  0.14801971  0.46698975  0.88524402    -0.02290
C1090       C  0.12239367  0.46176124  0.87574093     0.07390
C1091       C  0.12297674  0.48158860  0.86141734    -0.02400
C1092       C  0.14898030  0.00696722  0.85703771    -0.02400
C1093       C  0.17439432  0.01292309  0.86720969     0.07530
C1094       C  0.17395006  0.49276649  0.88125281    -0.02600
Br1095     Br  0.20861952  0.50068542  0.89546905    -0.01150
Br1096     Br  0.14737614  0.43869108  0.90361650    -0.01220
Br1097     Br  0.14958250  0.03413600  0.83767434    -0.01180
Br1098     Br  0.08789283  0.47430465  0.84816447    -0.01160
C1099       C  0.02030075  0.39903874  0.93208999    -0.02290
C1100       C  0.03224707  0.41981999  0.91646160     0.07390
C1101       C  0.02837177  0.44401561  0.91686554    -0.02400
C1102       C  0.01505638  0.44882188  0.93363864    -0.02400
C1103       C  0.00419884  0.42870722  0.94976341     0.07530
C1104       C  0.00547908  0.40298171  0.94835803    -0.02600
Br1105     Br  0.98818260  0.37342748  0.96899365    -0.01150
Br1106     Br  0.02590489  0.36605597  0.93207716    -0.01220
Br1107     Br  0.51094670  0.48271924  0.93390801    -0.01180
Br1108     Br  0.04043891  0.47024937  0.89408313    -0.01160
C1109       C  0.43807622  0.23925217  0.84719781    -0.02290
C1110       C  0.41511814  0.24055329  0.85705596     0.07390
C1111       C  0.41998159  0.26776589  0.86398946    -0.02400
C1112       C  0.44680885  0.29299599  0.86044278    -0.02400
C1113       C  0.47023489  0.29093309  0.85235554     0.07530
C1114       C  0.46585338  0.26341873  0.84711153    -0.02600
Br1115     Br  0.49796057  0.25763711  0.84102896    -0.01150
Br1116     Br  0.43272299  0.20585622  0.83190963    -0.01220
Br1117     Br  0.45021288  0.33027390  0.86516979    -0.01180
Br1118     Br  0.38946809  0.27164036  0.87659187    -0.01160
C1119       C  0.06923752  0.34630307  0.77185271    -0.02290
C1120       C  0.08020026  0.32732715  0.77385320     0.07390
C1121       C  0.08121670  0.31665977  0.79313961    -0.02400
C1122       C  0.06916323  0.32303632  0.80995221    -0.02400
C1123       C  0.05523910  0.33927318  0.80737737     0.07530
C1124       C  0.05612836  0.35173579  0.78847938    -0.02600
Br1125     Br  0.03944060  0.37618066  0.78552007    -0.01150
Br1126     Br  0.07275851  0.36540606  0.74652947    -0.01220
Br1127     Br  0.07274707  0.31057375  0.83669348    -0.01180
Br1128     Br  0.10079743  0.29504675  0.79680004    -0.01160
C1129       C  0.16314130  0.05838893  0.26879471    -0.02290
C1130       C  0.17520510  0.05456671  0.25081509     0.07390
C1131       C  0.20497556  0.06448690  0.25003174    -0.02400
C1132       C  0.22161406  0.07382761  0.26772590    -0.02400
C1133       C  0.20978763  0.07774823  0.28574852     0.07530
C1134       C  0.18073658  0.07113244  0.28597387    -0.02600
Br1135     Br  0.16469981  0.07844421  0.30994905    -0.01150
Br1136     Br  0.12259842  0.04576962  0.27002415    -0.01220
Br1137     Br  0.26065270  0.08114150  0.26693832    -0.01180
Br1138     Br  0.22379957  0.06862841  0.22430674    -0.01160
C1139       C  0.16190950  0.44093006  0.20366876    -0.02290
C1140       C  0.13585391  0.41681541  0.19699394     0.07390
C1141       C  0.11179356  0.42042498  0.19332016    -0.02400
C1142       C  0.11345773  0.44713090  0.19755369    -0.02400
C1143       C  0.14015542  0.47150208  0.20286878     0.07530
C1144       C  0.16466321  0.46836192  0.20427063    -0.02600
Br1145     Br  0.20275614  0.50159975  0.20537944    -0.01150
Br1146     Br  0.19374361  0.43747497  0.21412413    -0.01220
Br1147     Br  0.07842626  0.44914602  0.19771279    -0.01180
Br1148     Br  0.07537489  0.38826760  0.18472407    -0.01160
C1149       C  0.03388349  0.01667856  0.14449144    -0.02290
C1150       C  0.06347139  0.02555922  0.14499823     0.07390
C1151       C  0.07561820  0.01771326  0.12888558    -0.02400
C1152       C  0.05866234  0.00268899  0.11199434    -0.02400
C1153       C  0.03049578  0.99815500  0.11006490     0.07530
C1154       C  0.01754283  0.00324094  0.12702636    -0.02600
Br1155     Br  0.47653151  0.98816367  0.12733936    -0.01150
Br1156     Br  0.01535284  0.02164654  0.16800568    -0.01220
Br1157     Br  0.07347228  0.98656418  0.09255760    -0.01180
Br1158     Br  0.11595358  0.02900513  0.12917854    -0.01160
C1159       C  0.13709140  0.16921681  0.18508469    -0.02290
C1160       C  0.11317166  0.17106097  0.19215945     0.07390
C1161       C  0.08697725  0.14566568  0.19617917    -0.02400
C1162       C  0.08471689  0.11855795  0.19343206    -0.02400
C1163       C  0.10825024  0.11660653  0.18567439     0.07530
C1164       C  0.13457535  0.14203661  0.18171804    -0.02600
Br1165     Br  0.16673846  0.13969683  0.17064655    -0.01150
Br1166     Br  0.17243057  0.20376312  0.17794323    -0.01220
Br1167     Br  0.04957545  0.08415361  0.20102668    -0.01180
Br1168     Br  0.05389057  0.14799923  0.20500898    -0.01160
C1169       C  0.18214848  0.47849276  0.35259865    -0.02290
C1170       C  0.18023618  0.00344005  0.35707294     0.07390
C1171       C  0.15278108  0.50094610  0.35749369    -0.02400
C1172       C  0.12763664  0.47380598  0.35567708    -0.02400
C1173       C  0.12972263  0.44873983  0.35294136     0.07530
C1174       C  0.15713868  0.45118259  0.35198508    -0.02600
Br1175     Br  0.16063339  0.41694817  0.34991533    -0.01150
Br1176     Br  0.21768492  0.98107627  0.34362955    -0.01220
Br1177     Br  0.09052111  0.47164831  0.35517225    -0.01180
Br1178     Br  0.14967267  0.03503714  0.35531384    -0.01160
C1179       C  0.08948338  0.36794567  0.26830358    -0.02290
C1180       C  0.09231209  0.34326454  0.27050103     0.07390
C1181       C  0.08964464  0.33109319  0.28987685    -0.02400
C1182       C  0.08338000  0.34299358  0.30686022    -0.02400
C1183       C  0.08043645  0.36762069  0.30463655     0.07530
C1184       C  0.08330202  0.37994249  0.28528084    -0.02600
Br1185     Br  0.07902026  0.41347172  0.28210384    -0.01150
Br1186     Br  0.09550432  0.38627039  0.24223633    -0.01220
Br1187     Br  0.08087911  0.32668733  0.33342690    -0.01180
Br1188     Br  0.09802522  0.30035371  0.29362344    -0.01160
C1189       C  0.50107644  0.41677363  0.41383044    -0.02290
C1190       C  0.99870315  0.38931188  0.41523748     0.07390
C1191       C  0.99249727  0.37517520  0.43419044    -0.02400
C1192       C  0.98608760  0.38701961  0.45110713    -0.02400
C1193       C  0.48817160  0.41431796  0.44970058     0.07530
C1194       C  0.49677874  0.42964316  0.43119230    -0.02600
Br1195     Br  0.50124289  0.46766428  0.42923892    -0.01150
Br1196     Br  0.50827392  0.43608261  0.38794857    -0.01220
Br1197     Br  0.97458347  0.36558249  0.47622776    -0.01180
Br1198     Br  0.99383836  0.33995032  0.43723032    -0.01160
C1199       C  0.40006159  0.27657716  0.36213427    -0.02290
C1200       C  0.40114457  0.25080091  0.36261216     0.07390
C1201       C  0.42768631  0.25194244  0.36603486    -0.02400
C1202       C  0.45266181  0.27857584  0.36994226    -0.02400
C1203       C  0.45156603  0.30438928  0.36934254     0.07530
C1204       C  0.42533579  0.30332540  0.36479488    -0.02600
Br1205     Br  0.42401421  0.33858272  0.36180023    -0.01150
Br1206     Br  0.36391508  0.27542096  0.35816548    -0.01220
Br1207     Br  0.48768194  0.27924080  0.37780739    -0.01180
Br1208     Br  0.42941758  0.21676549  0.36733685    -0.01160
C1209       C  0.08837325  0.13705451  0.03451114    -0.02290
C1210       C  0.11629610  0.14140180  0.03128752     0.07390
C1211       C  0.11937943  0.11783923  0.02478077    -0.02400
C1212       C  0.09481003  0.09064075  0.02141727    -0.02400
C1213       C  0.06735964  0.08532544  0.02795472     0.07530
C1214       C  0.06447769  0.10897231  0.03463308    -0.02600
Br1215     Br  0.02834889  0.10402973  0.04443324    -0.01150
Br1216     Br  0.08247541  0.16969091  0.03804543    -0.01220
Br1217     Br  0.09980479  0.06115431  0.00817451    -0.01180
Br1218     Br  0.15693102  0.12114876  0.02249861    -0.01160
C1219       C  0.14795627  0.21561669  0.11604127    -0.02290
C1220       C  0.15379434  0.24447054  0.11625321     0.07390
C1221       C  0.16566528  0.26167777  0.09875978    -0.02400
C1222       C  0.17076396  0.24982782  0.08114018    -0.02400
C1223       C  0.16604207  0.22131477  0.08137373     0.07530
C1224       C  0.15613556  0.20496147  0.09934956    -0.02600
Br1225     Br  0.15455092  0.16811950  0.10145475    -0.01150
Br1226     Br  0.12651748  0.18929349  0.13759024    -0.01220
Br1227     Br  0.18191862  0.27213103  0.05636008    -0.01180
Br1228     Br  0.17189632  0.30047973  0.09804456    -0.01160
C1229       C  0.24001907  0.19808560  0.95730127    -0.02290
C1230       C  0.25166614  0.19652034  0.97609552     0.07390
C1231       C  0.26847240  0.18308922  0.97731534    -0.02400
C1232       C  0.27399568  0.17164249  0.95972702    -0.02400
C1233       C  0.26256163  0.17342549  0.94090534     0.07530
C1234       C  0.24547883  0.18658952  0.93975720    -0.02600
Br1235     Br  0.23214516  0.19175718  0.91382929    -0.01150
Br1236     Br  0.21816565  0.21776951  0.95530841    -0.01220
Br1237     Br  0.29761003  0.15391781  0.96131846    -0.01180
Br1238     Br  0.28411010  0.18073502  0.00308116    -0.01160
C1239       C  0.30679679  0.30524896  0.99947220    -0.02290
C1240       C  0.29246098  0.28696800  0.01598108     0.07390
C1241       C  0.30184263  0.29687998  0.03590601    -0.02400
C1242       C  0.32547241  0.32475133  0.03914078    -0.02400
C1243       C  0.34291558  0.34105242  0.02251480     0.07530
C1244       C  0.33276381  0.33113185  0.00254126    -0.02600
Br1245     Br  0.35274984  0.35278375  0.97869960    -0.01150
Br1246     Br  0.28996390  0.29562922  0.97258428    -0.01220
Br1247     Br  0.33164934  0.34024371  0.06632089    -0.01180
Br1248     Br  0.28385613  0.27184317  0.05897062    -0.01160
C1249       C  0.03374348  0.25564758  0.58262436    -0.02290
C1250       C  0.01140028  0.22647616  0.58251365     0.07390
C1251       C  0.00305245  0.21155772  0.60115142    -0.02400
C1252       C  0.02047796  0.22285142  0.61838048    -0.02400
C1253       C  0.04354188  0.25146184  0.61832973     0.07530
C1254       C  0.04780421  0.26869037  0.60098668    -0.02600
Br1255     Br  0.07041560  0.31011144  0.60254723    -0.01150
Br1256     Br  0.04620407  0.27775720  0.55784647    -0.01220
Br1257     Br  0.01092870  0.19953370  0.64247532    -0.01180
Br1258     Br  0.46541066  0.17847747  0.60435841    -0.01160
C1259       C  0.47833055  0.10550330  0.51450126    -0.02290
C1260       C  0.47407181  0.08744269  0.53141222     0.07390
C1261       C  0.47127789  0.09697616  0.55080890    -0.02400
C1262       C  0.46696232  0.12047157  0.55258527    -0.02400
C1263       C  0.47431619  0.14031004  0.53666028     0.07530
C1264       C  0.48048691  0.13283976  0.51739485    -0.02600
Br1265     Br  0.49266778  0.15993915  0.49522156    -0.01150
Br1266     Br  0.48395605  0.09427108  0.48783151    -0.01220
Br1267     Br  0.44532506  0.12149356  0.57536436    -0.01180
Br1268     Br  0.47637840  0.08106453  0.57568630    -0.01160
C1269       C  0.41146702  0.28498423  0.52220949    -0.02290
C1270       C  0.43605099  0.28181993  0.52286286     0.07390
C1271       C  0.46320155  0.30615100  0.52723620    -0.02400
C1272       C  0.46566379  0.33325867  0.53068770    -0.02400
C1273       C  0.44162866  0.33706127  0.52767601     0.07530
C1274       C  0.41436435  0.31257150  0.52374661    -0.02600
Br1275     Br  0.38042828  0.31610089  0.52078631    -0.01150
Br1276     Br  0.37355169  0.25135219  0.51971459    -0.01220
Br1277     Br  0.00269350  0.36506379  0.53871173    -0.01180
Br1278     Br  0.99797470  0.30358521  0.52654485    -0.01160
C1279       C  0.39558979  0.20926671  0.43715413    -0.02290
C1280       C  0.37609874  0.17914446  0.43638234     0.07390
C1281       C  0.37710968  0.16164534  0.45212939    -0.02400
C1282       C  0.39250208  0.17443630  0.47005966    -0.02400
C1283       C  0.41123889  0.20464680  0.47106836     0.07530
C1284       C  0.41429213  0.22153262  0.45378952    -0.02600
Br1285     Br  0.44508844  0.26126252  0.45236908    -0.01150
Br1286     Br  0.39824353  0.23422587  0.41519170    -0.01220
Br1287     Br  0.38510091  0.15017256  0.49364394    -0.01180
Br1288     Br  0.35873317  0.12018661  0.44955433    -0.01160
C1289       C  0.32054265  0.27442735  0.85400122    -0.02290
C1290       C  0.30875915  0.25345501  0.86942198     0.07390
C1291       C  0.30096893  0.26087928  0.88795606    -0.02400
C1292       C  0.29786138  0.28531535  0.88919999    -0.02400
C1293       C  0.30809876  0.30578251  0.87334432     0.07530
C1294       C  0.32033445  0.30062552  0.85592461    -0.02600
Br1295     Br  0.33884765  0.33012968  0.83548905    -0.01150
Br1296     Br  0.34342261  0.27032534  0.83317624    -0.01220
Br1297     Br  0.27914871  0.29023366  0.91278025    -0.01180
Br1298     Br  0.30167138  0.24256044  0.91286818    -0.01160
C1299       C  0.39425034  0.41416924  0.93264578    -0.02290
C1300       C  0.38182071  0.41727815  0.95066029     0.07390
C1301       C  0.35250431  0.40956787  0.95095798    -0.02400
C1302       C  0.33525910  0.39690449  0.93370516    -0.02400
C1303       C  0.34768807  0.39340881  0.91580652     0.07530
C1304       C  0.37743355  0.40306495  0.91512735    -0.02600
Br1305     Br  0.39522085  0.40109594  0.89007083    -0.01150
Br1306     Br  0.43444168  0.42519216  0.93181772    -0.01220
Br1307     Br  0.29430444  0.38234370  0.93511954    -0.01180
Br1308     Br  0.33542483  0.41428675  0.97541659    -0.01160
C1309       C  0.24459957  0.35011170  0.79386733    -0.02290
C1310       C  0.23799775  0.36551897  0.80826321     0.07390
C1311       C  0.21227318  0.36641295  0.80615118    -0.02400
C1312       C  0.19515885  0.35517183  0.78873716    -0.02400
C1313       C  0.20177365  0.33994892  0.77401873     0.07530
C1314       C  0.22585484  0.33615861  0.77741760    -0.02600
Br1315     Br  0.23446375  0.31275118  0.75960110    -0.01150
Br1316     Br  0.28044898  0.34979538  0.79568845    -0.01220
Br1317     Br  0.16266822  0.36123585  0.78578922    -0.01180
Br1318     Br  0.19943999  0.38207474  0.82754130    -0.01160
C1319       C  0.26402657  0.45616611  0.85602571    -0.02290
C1320       C  0.28777147  0.45644787  0.84664041     0.07390
C1321       C  0.30958177  0.48220323  0.83794681    -0.02400
C1322       C  0.30775181  0.00758685  0.83921170    -0.02400
C1323       C  0.28440340  0.00728674  0.84936365     0.07530
C1324       C  0.26109309  0.48067665  0.85529687    -0.02600
Br1325     Br  0.22300419  0.47520457  0.85492161    -0.01150
Br1326     Br  0.23541646  0.42237621  0.87017296    -0.01220
Br1327     Br  0.33316836  0.04060775  0.82322627    -0.01180
Br1328     Br  0.34149645  0.48245184  0.82422872    -0.01160
C1329       C  0.48939368  0.12132550  0.68291491    -0.02290
C1330       C  0.46215979  0.11924074  0.68438601     0.07390
C1331       C  0.46061403  0.14432146  0.68869867    -0.02400
C1332       C  0.48602590  0.17086872  0.69211714    -0.02400
C1333       C  0.01336751  0.17320544  0.68974260     0.07530
C1334       C  0.01460819  0.14843575  0.68353781    -0.02600
Br1335     Br  0.04934810  0.15095594  0.67271525    -0.01150
Br1336     Br  0.49253358  0.08691438  0.68060889    -0.01220
Br1337     Br  0.48302239  0.20490056  0.69638261    -0.01180
Br1338     Br  0.42403378  0.14332540  0.68802698    -0.01160
C1339       C  0.41913148  0.01433099  0.64051887    -0.02290
C1340       C  0.41255812  0.03640125  0.63725214     0.07390
C1341       C  0.40871830  0.04335231  0.61739787    -0.02400
C1342       C  0.41359332  0.02971878  0.60080050    -0.02400
C1343       C  0.42356873  0.01016908  0.60402696     0.07530
C1344       C  0.42324649  0.50053005  0.62386811    -0.02600
Br1345     Br  0.42738063  0.46740877  0.62819212    -0.01150
Br1346     Br  0.41964055  0.50170028  0.66775085    -0.01220
Br1347     Br  0.40343286  0.03516498  0.57398066    -0.01180
Br1348     Br  0.39629778  0.07109794  0.61322412    -0.01160
C1349       C  0.27141195  0.46647708  0.68494936    -0.02290
C1350       C  0.28621554  0.47399974  0.70364126     0.07390
C1351       C  0.27705552  0.45356316  0.71943061    -0.02400
C1352       C  0.25241377  0.42629169  0.71694070    -0.02400
C1353       C  0.23703660  0.41893255  0.69845090     0.07530
C1354       C  0.24722724  0.43881776  0.68222884    -0.02600
Br1355     Br  0.22757537  0.42883840  0.65647252    -0.01150
Br1356     Br  0.28310998  0.49460893  0.66341007    -0.01220
Br1357     Br  0.24071761  0.39876794  0.73881861    -0.01180
Br1358     Br  0.29877357  0.46264194  0.74439233    -0.01160
C1359       C  0.34996385  0.07406912  0.75836950    -0.02290
C1360       C  0.32976186  0.06601993  0.74245735     0.07390
C1361       C  0.30723897  0.07228634  0.74401558    -0.02400
C1362       C  0.30311387  0.08361959  0.76216984    -0.02400
C1363       C  0.32202213  0.08962868  0.77870179     0.07530
C1364       C  0.34691128  0.08721858  0.77599324    -0.02600
Br1365     Br  0.37739692  0.10231274  0.79592059    -0.01150
Br1366     Br  0.38059823  0.06499064  0.75700247    -0.01220
Br1367     Br  0.27322404  0.09359932  0.76350820    -0.01180
Br1368     Br  0.28243624  0.06597558  0.72105563    -0.01160
C1369       C  0.33097826  0.54927115  0.72495812     0.02690
C1370       C  0.35526614  0.56049019  0.71228799    -0.13460
C1371       C  0.35871523  0.54282330  0.69791604     0.00190
C1372       C  0.33616767  0.51399740  0.69581303    -0.11980
C1373       C  0.31059825  0.50359234  0.70699904     0.02680
C1374       C  0.30833946  0.52116043  0.72176121    -0.11410
H1375       H  0.37150501  0.58291067  0.71416023     0.08280
H1376       H  0.33805114  0.49918847  0.68562145     0.05810
H1377       H  0.28913202  0.51267179  0.73111700     0.05650
C1378       C  0.41035486  0.55271701  0.65456450     0.02690
C1379       C  0.38547928  0.54147288  0.66652859    -0.13460
C1380       C  0.38551132  0.55446422  0.68520220     0.00190
C1381       C  0.41151232  0.57882494  0.69153209    -0.11980
C1382       C  0.43564427  0.59177725  0.67864132     0.02680
C1383       C  0.43464088  0.57864292  0.66001614    -0.11410
H1384       H  0.36684904  0.02232751  0.66114145     0.08280
H1385       H  0.41327752  0.58821252  0.70636373     0.05810
H1386       H  0.45320688  0.58805693  0.65000132     0.05650
C1387       C  0.25879255  0.88265845  0.82460570     0.02690
C1388       C  0.26842465  0.91217214  0.82607222    -0.13460
C1389       C  0.28573292  0.92840629  0.84221084     0.00190
C1390       C  0.29660583  0.91605882  0.85567862    -0.11980
C1391       C  0.28825876  0.88642359  0.85431187     0.02680
C1392       C  0.26803516  0.86976020  0.83908609    -0.11410
H1393       H  0.26073501  0.92218043  0.81538968     0.08280
H1394       H  0.31107444  0.93002369  0.86721694     0.05810
H1395       H  0.25893476  0.84667604  0.83829374     0.05650
C1396       C  0.32946411  0.87696568  0.89840495     0.02690
C1397       C  0.32703217  0.85049114  0.89364831    -0.13460
C1398       C  0.31089406  0.83448845  0.87701226     0.00190
C1399       C  0.29810420  0.84598362  0.86431783    -0.11980
C1400       C  0.30048134  0.87313626  0.86856046     0.02680
C1401       C  0.31577340  0.88792301  0.88625050    -0.11410
H1402       H  0.33780615  0.84219414  0.90308674     0.08280
H1403       H  0.28694376  0.83362008  0.85107388     0.05810
H1404       H  0.31764521  0.90810581  0.89090731     0.05650
C1405       C  0.42563571  0.71881149  0.49052506     0.02690
C1406       C  0.44120528  0.70904234  0.50193461    -0.13460
C1407       C  0.45002448  0.71878792  0.52200848     0.00190
C1408       C  0.44508832  0.74070805  0.52952876    -0.11980
C1409       C  0.43401583  0.75396281  0.51700032     0.02680
C1410       C  0.42295020  0.74187897  0.49801189    -0.11410
H1411       H  0.44577899  0.69343444  0.49503302     0.08280
H1412       H  0.45067238  0.74867973  0.54484972     0.05810
H1413       H  0.41250784  0.75078559  0.48888197     0.05650
C1414       C  0.49610809  0.71149360  0.56344246     0.02690
C1415       C  0.48179603  0.72219702  0.55166797    -0.13460
C1416       C  0.46492272  0.70679310  0.53472002     0.00190
C1417       C  0.46229200  0.67970973  0.53015794    -0.11980
C1418       C  0.47757692  0.66926144  0.54114059     0.02680
C1419       C  0.49459713  0.68549312  0.55767290    -0.11410
H1420       H  0.48409178  0.74264792  0.55607940     0.08280
H1421       H  0.44786105  0.66610371  0.51840769     0.05810
H1422       H  0.50602435  0.67736230  0.56653262     0.05650
C1423       C  0.24897841  0.71208545  0.99376283     0.02690
C1424       C  0.22282948  0.70146420  0.00422785    -0.13460
C1425       C  0.21875238  0.71895336  0.01840740     0.00190
C1426       C  0.24122029  0.74757204  0.02115740    -0.11980
C1427       C  0.26824640  0.75735914  0.01212799     0.02680
C1428       C  0.27204714  0.73920923  0.99868676    -0.11410
H1429       H  0.20598308  0.67964616  0.00107428     0.08280
H1430       H  0.23803264  0.76241024  0.03048008     0.05810
H1431       H  0.29261673  0.74682600  0.99115842     0.05650
C1432       C  0.16728796  0.70710896  0.06224442     0.02690
C1433       C  0.19222263  0.71864414  0.05025599    -0.13460
C1434       C  0.19180444  0.70726128  0.03081011     0.00190
C1435       C  0.16579813  0.68366589  0.02388661    -0.11980
C1436       C  0.14191026  0.66959028  0.03684358     0.02680
C1437       C  0.14277911  0.68185750  0.05581810    -0.11410
H1438       H  0.21176543  0.73644589  0.05633568     0.08280
H1439       H  0.16415013  0.67541671  0.00866773     0.05810
H1440       H  0.12413183  0.67171044  0.06570857     0.05650
C1441       C  0.00035629  0.87408176  0.39680939     0.02690
C1442       C  0.02542710  0.88538406  0.38487029    -0.13460
C1443       C  0.02713892  0.87040207  0.36759684     0.00190
C1444       C  0.00251959  0.84355827  0.36288501    -0.11980
C1445       C  0.47733078  0.83236232  0.37460091     0.02680
C1446       C  0.47644846  0.84769980  0.39147092    -0.11410
H1447       H  0.04307275  0.90606850  0.38932614     0.08280
H1448       H  0.00221967  0.83059039  0.35028013     0.05810
H1449       H  0.45700694  0.83893582  0.40060239     0.05650
C1450       C  0.07862947  0.88272934  0.32295128     0.02690
C1451       C  0.10280417  0.90847517  0.32871801    -0.13460
C1452       C  0.10375750  0.92095834  0.34753618     0.00190
C1453       C  0.07992222  0.90748635  0.36061442    -0.11980
C1454       C  0.05392133  0.88287530  0.35441365     0.02680
C1455       C  0.05397033  0.87067682  0.33526883    -0.11410
H1456       H  0.12133872  0.91845307  0.31868230     0.08280
H1457       H  0.08224118  0.91698645  0.37541025     0.05810
H1458       H  0.03537197  0.85171716  0.32947254     0.05650
C1459       C  0.08171688  0.54294134  0.16227828     0.02690
C1460       C  0.08669679  0.57091576  0.16560237    -0.13460
C1461       C  0.10489817  0.58788610  0.18128901     0.00190
C1462       C  0.11950469  0.57737850  0.19297454    -0.11980
C1463       C  0.11488142  0.54919981  0.19002895     0.02680
C1464       C  0.09478729  0.53187058  0.17501554    -0.11410
H1465       H  0.07627372  0.57945289  0.15605519     0.08280
H1466       H  0.13443880  0.59168691  0.20420045     0.05810
H1467       H  0.08901158  0.00961579  0.17281924     0.05650
C1468       C  0.15708604  0.53881558  0.23304554     0.02690
C1469       C  0.15470743  0.51248353  0.22733649    -0.13460
C1470       C  0.14218631  0.99945451  0.20877094     0.00190
C1471       C  0.13162459  0.51305481  0.19608410    -0.11980
C1472       C  0.13034869  0.53761945  0.20257970     0.02680
C1473       C  0.14393496  0.55065745  0.22113277    -0.11410
H1474       H  0.16348895  0.50257271  0.23716333     0.08280
H1475       H  0.12420981  0.50391373  0.18120274     0.05810
H1476       H  0.14471247  0.57002712  0.22663328     0.05650
C1477       C  0.03903674  0.84209125  0.82450295     0.02690
C1478       C  0.05250605  0.86508055  0.83806539    -0.13460
C1479       C  0.03971126  0.86442262  0.85697790     0.00190
C1480       C  0.01349173  0.83916586  0.86200335    -0.11980
C1481       C  0.49851300  0.81723425  0.84758652     0.02680
C1482       C  0.01122770  0.81967782  0.82851804    -0.11410
H1483       H  0.07304501  0.88294487  0.83351818     0.08280
H1484       H  0.50453642  0.83618541  0.87710107     0.05810
H1485       H  0.50032177  0.80299315  0.81719284     0.05650
C1486       C  0.04957114  0.91682080  0.90001318     0.02690
C1487       C  0.03703709  0.89328099  0.88663318    -0.13460
C1488       C  0.05346978  0.88972744  0.87127192     0.00190
C1489       C  0.08259642  0.91162254  0.86901654    -0.11980
C1490       C  0.09449013  0.93629890  0.88125294     0.02680
C1491       C  0.07838575  0.93825329  0.89723884    -0.11410
H1492       H  0.51425258  0.87822416  0.88823912     0.08280
H1493       H  0.09638028  0.91048466  0.85754045     0.05810
H1494       H  0.08789768  0.95713027  0.90696013     0.05650
C1495       C  0.37137399  0.82806509  0.65502886     0.02690
C1496       C  0.38015405  0.81198516  0.66673357    -0.13460
C1497       C  0.36292749  0.79425546  0.68289905     0.00190
C1498       C  0.33654921  0.79367114  0.68681646    -0.11980
C1499       C  0.32807648  0.81022883  0.67537319     0.02680
C1500       C  0.34546949  0.82723058  0.65943951    -0.11410
H1501       H  0.40077765  0.81417879  0.66309378     0.08280
H1502       H  0.32209806  0.78078827  0.69875458     0.05810
H1503       H  0.33873672  0.83969370  0.65036900     0.05650
C1504       C  0.37188828  0.75713461  0.72951211     0.02690
C1505       C  0.35880665  0.76515770  0.71462107    -0.13460
C1506       C  0.37374324  0.77905516  0.69668711     0.00190
C1507       C  0.39997539  0.77933610  0.69277987    -0.11980
C1508       C  0.41466055  0.77356670  0.70824138     0.02680
C1509       C  0.40071800  0.76444748  0.72713029    -0.11410
H1510       H  0.33691289  0.75989976  0.71737729     0.08280
H1511       H  0.40904785  0.78384384  0.67774250     0.05810
H1512       H  0.41148723  0.76121560  0.73984017     0.05650
C1513       C  0.20640654  0.67167247  0.49366066     0.02690
C1514       C  0.21826490  0.69612853  0.50610131    -0.13460
C1515       C  0.20615082  0.69544632  0.52527483     0.00190
C1516       C  0.18162800  0.66958160  0.53155037    -0.11980
C1517       C  0.16771882  0.64613125  0.51819538     0.02680
C1518       C  0.18053656  0.64737603  0.49938055    -0.11410
H1519       H  0.23682167  0.71553446  0.50052665     0.08280
H1520       H  0.17263164  0.66775750  0.54655474     0.05810
H1521       H  0.17036079  0.62921651  0.48906041     0.05650
C1522       C  0.21153566  0.75120910  0.56385512     0.02690
C1523       C  0.20032253  0.72640040  0.55171618    -0.13460
C1524       C  0.21822733  0.72193785  0.53817497     0.00190
C1525       C  0.24739416  0.74370305  0.53634989    -0.11980
C1526       C  0.25778322  0.77007254  0.54648232     0.02680
C1527       C  0.23998555  0.77312362  0.56063812    -0.11410
H1528       H  0.17762704  0.71076586  0.55298133     0.08280
H1529       H  0.26205857  0.74077109  0.52666569     0.05810
H1530       H  0.24840909  0.79296639  0.56923699     0.05650
C1531       C  0.20477088  0.99766578  0.99286603     0.02690
C1532       C  0.21534036  0.98166508  0.00279706    -0.13460
C1533       C  0.20044169  0.96360948  0.01951987     0.00190
C1534       C  0.17321496  0.96021110  0.02461773    -0.11980
C1535       C  0.16311564  0.97675825  0.01508895     0.02680
C1536       C  0.17955937  0.99632089  0.00002216    -0.11410
H1537       H  0.23522104  0.98383113  0.99721728     0.08280
H1538       H  0.15932025  0.94467052  0.03575993     0.05810
H1539       H  0.17165512  0.00928875  0.99291729     0.05650
C1540       C  0.21248230  0.92196365  0.06209019     0.02690
C1541       C  0.20172209  0.93683511  0.05099705    -0.13460
C1542       C  0.21308778  0.94874894  0.03167953     0.00190
C1543       C  0.23744039  0.94738703  0.02476824    -0.11980
C1544       C  0.25044285  0.93568567  0.03696781     0.02680
C1545       C  0.23706882  0.92188794  0.05504534    -0.11410
H1546       H  0.18444615  0.93877823  0.05781060     0.08280
H1547       H  0.24729719  0.95591213  0.01024490     0.05810
H1548       H  0.24628477  0.91149767  0.06394421     0.05650
C1549       C  0.04557463  0.59854672  0.40045294     0.02690
C1550       C  0.07205149  0.60102441  0.39548882    -0.13460
C1551       C  0.08433350  0.61051122  0.37620373     0.00190
C1552       C  0.06984916  0.61829308  0.36206534    -0.11980
C1553       C  0.04507680  0.61952755  0.36775392     0.02680
C1554       C  0.03327916  0.60967623  0.38721996    -0.11410
H1555       H  0.08254587  0.59435567  0.40648820     0.08280
H1556       H  0.07819711  0.62367366  0.34675733     0.05810
H1557       H  0.51417344  0.60989162  0.39224552     0.05650
C1558       C  0.03580462  0.66291384  0.32555300     0.02690
C1559       C  0.04847492  0.65215652  0.33894687    -0.13460
C1560       C  0.03165420  0.63112323  0.35359474     0.00190
C1561       C  0.00216071  0.62238362  0.35528607    -0.11980
C1562       C  0.49031970  0.63578962  0.34379771     0.02680
C1563       C  0.00680715  0.65476855  0.32833264    -0.11410
H1564       H  0.07141741  0.66036569  0.33785835     0.08280
H1565       H  0.48829571  0.60586738  0.36594250     0.05810
H1566       H  0.49707130  0.66382414  0.31861696     0.05650
C1567       C  0.37320612  0.58569210  0.22786774     0.02690
C1568       C  0.36139414  0.56061729  0.21595808    -0.13460
C1569       C  0.37788035  0.55701744  0.20063860     0.00190
C1570       C  0.40644006  0.57978036  0.19745036    -0.11980
C1571       C  0.41754949  0.60574906  0.20830738     0.02680
C1572       C  0.40081725  0.60844968  0.22352304    -0.11410
H1573       H  0.33942250  0.54417551  0.21903625     0.08280
H1574       H  0.42056409  0.57761290  0.18675073     0.05810
H1575       H  0.40964053  0.62811082  0.23241683     0.05650
C1576       C  0.36983666  0.50316019  0.15918943     0.02690
C1577       C  0.37827302  0.52914622  0.16957313    -0.13460
C1578       C  0.36597540  0.52955188  0.18849526     0.00190
C1579       C  0.34209339  0.50351877  0.19538163    -0.11980
C1580       C  0.33162266  0.97806220  0.18403855     0.02680
C1581       C  0.34675328  0.97754690  0.16688798    -0.11410
H1582       H  0.39438666  0.54900589  0.16260786     0.08280
H1583       H  0.33090848  0.50256681  0.20926229     0.05810
H1584       H  0.33930007  0.95741328  0.15878028     0.05650
C1585       C  0.25388760  0.83761077  0.32578800     0.02690
C1586       C  0.26928993  0.86356248  0.33667579    -0.13460
C1587       C  0.28627426  0.86579109  0.35385028     0.00190
C1588       C  0.28794272  0.84097499  0.35912773    -0.11980
C1589       C  0.27228952  0.81491985  0.34858095     0.02680
C1590       C  0.25501744  0.81326045  0.33219580    -0.11410
H1591       H  0.26773782  0.88165969  0.33119577     0.08280
H1592       H  0.30190558  0.84135572  0.37098538     0.05810
H1593       H  0.24328076  0.79316806  0.32388120     0.05650
C1594       C  0.33227964  0.92062296  0.39523922     0.02690
C1595       C  0.31659620  0.89474769  0.38437168    -0.13460
C1596       C  0.30252801  0.89365951  0.36586915     0.00190
C1597       C  0.30349385  0.91947557  0.35952916    -0.11980
C1598       C  0.31787829  0.94491181  0.37098939     0.02680
C1599       C  0.33305994  0.94560154  0.38828464    -0.11410
H1600       H  0.31540748  0.87579357  0.39098884     0.08280
H1601       H  0.29259133  0.92046168  0.34613465     0.05810
H1602       H  0.34430982  0.96538287  0.39701126     0.05650
C1603       C  0.15860134  0.58710505  0.73083750     0.02690
C1604       C  0.14895993  0.56339062  0.71744072    -0.13460
C1605       C  0.13011972  0.55926116  0.70108517     0.00190
C1606       C  0.12358195  0.58120586  0.69707516    -0.11980
C1607       C  0.13772868  0.60721654  0.70758988     0.02680
C1608       C  0.15582980  0.61031393  0.72367536    -0.11410
H1609       H  0.15745094  0.54908818  0.71892678     0.08280
H1610       H  0.10845538  0.57898080  0.68544505     0.05810
H1611       H  0.16848245  0.63164765  0.72986332     0.05650
C1612       C  0.08986341  0.50488290  0.65861779     0.02690
C1613       C  0.10515360  0.53105088  0.66919749    -0.13460
C1614       C  0.11704928  0.53216561  0.68855337     0.00190
C1615       C  0.11565420  0.50678757  0.69601392    -0.11980
C1616       C  0.10361211  0.98152631  0.68438515     0.02680
C1617       C  0.08956548  0.98032929  0.66627450    -0.11410
H1618       H  0.10709485  0.55019569  0.66222491     0.08280
H1619       H  0.12405362  0.50620086  0.71076197     0.05810
H1620       H  0.07866076  0.96018474  0.65795230     0.05650
C1621       C  0.24723553  0.99644951  0.49208846     0.02690
C1622       C  0.22243096  0.98399849  0.50418957    -0.13460
C1623       C  0.21958709  0.96652475  0.52118698     0.00190
C1624       C  0.24358270  0.96315927  0.52592451    -0.11980
C1625       C  0.26872891  0.97592215  0.51396482     0.02680
C1626       C  0.27007880  0.99201306  0.49683122    -0.11410
H1627       H  0.20597891  0.98886095  0.49992718     0.08280
H1628       H  0.24363444  0.95106627  0.53893860     0.05810
H1629       H  0.28933260  0.00182308  0.48748086     0.05650
C1630       C  0.16422053  0.92393070  0.56334649     0.02690
C1631       C  0.18952744  0.93635058  0.55160865    -0.13460
C1632       C  0.19220877  0.95260669  0.53389712     0.00190
C1633       C  0.16810651  0.95545382  0.52858260    -0.11980
C1634       C  0.14318257  0.94352377  0.54054918     0.02680
C1635       C  0.14121818  0.92766853  0.55779303    -0.11410
H1636       H  0.20665419  0.93300690  0.55681072     0.08280
H1637       H  0.16778413  0.96690439  0.51529110     0.05810
H1638       H  0.12182591  0.91839502  0.56700323     0.05650
C1639       C  0.33384350  0.75427956  0.22976856     0.02690
C1640       C  0.35697722  0.76383774  0.21628048    -0.13460
C1641       C  0.35652456  0.77586782  0.19727260     0.00190
C1642       C  0.33106529  0.77617272  0.19194148    -0.11980
C1643       C  0.30887721  0.76916430  0.20620166     0.02680
C1644       C  0.31109267  0.75899170  0.22531363    -0.11410
H1645       H  0.37491054  0.76152572  0.22107221     0.08280
H1646       H  0.32827615  0.78206873  0.17681481     0.05810
H1647       H  0.29431787  0.75337254  0.23656420     0.05650
C1648       C  0.41060274  0.82116567  0.15559531     0.02690
C1649       C  0.38572210  0.80817219  0.16776436    -0.13460
C1650       C  0.38257033  0.78872926  0.18349878     0.00190
C1651       C  0.40572319  0.78356635  0.18680227    -0.11980
C1652       C  0.43117469  0.79801767  0.17546917     0.02680
C1653       C  0.43309801  0.81587233  0.15951887    -0.11410
H1654       H  0.36952735  0.81413030  0.16502769     0.08280
H1655       H  0.40488231  0.76883722  0.19827477     0.05810
H1656       H  0.45267902  0.82653578  0.15052189     0.05650
C1657       C  0.43269352  0.67068916  0.98708988     0.02690
C1658       C  0.43943515  0.69347879  0.00071389    -0.13460
C1659       C  0.45676433  0.69796398  0.01811738     0.00190
C1660       C  0.46355300  0.67630141  0.02285097    -0.11980
C1661       C  0.45569055  0.65277326  0.00994005     0.02680
C1662       C  0.44250674  0.65145269  0.99142743    -0.11410
H1663       H  0.43035932  0.70699403  0.99753995     0.08280
H1664       H  0.47369717  0.67637312  0.03697201     0.05810
H1665       H  0.43791922  0.63395180  0.98104531     0.05650
C1666       C  0.48811520  0.74864368  0.06424736     0.02690
C1667       C  0.48435445  0.72871509  0.04881832    -0.13460
C1668       C  0.46552396  0.72337877  0.03219029     0.00190
C1669       C  0.45630517  0.74354633  0.02887975    -0.11980
C1670       C  0.46193132  0.76503943  0.04311055     0.02680
C1671       C  0.47445671  0.76502679  0.06170706    -0.11410
H1672       H  0.49682438  0.71803183  0.04972844     0.08280
H1673       H  0.44610762  0.74414660  0.01498174     0.05810
H1674       H  0.47590957  0.77996753  0.07334530     0.05650
C1675       C  0.07712693  0.65431388  0.82151905     0.02690
C1676       C  0.05072030  0.63799683  0.83185936    -0.13460
C1677       C  0.04908361  0.62399402  0.85050147     0.00190
C1678       C  0.07371485  0.62297172  0.85674765    -0.11980
C1679       C  0.09953183  0.63713251  0.84583920     0.02680
C1680       C  0.10147468  0.65385791  0.82892125    -0.11410
H1681       H  0.03172134  0.63677737  0.82531403     0.08280
H1682       H  0.07359516  0.61162359  0.87026751     0.05810
H1683       H  0.12202025  0.66607601  0.82123404     0.05650
C1684       C  0.99760409  0.58740828  0.89549175     0.02690
C1685       C  0.01902623  0.59401670  0.88072620    -0.13460
C1686       C  0.02294573  0.61258369  0.86415165     0.00190
C1687       C  0.00245987  0.62161736  0.86160559    -0.11980
C1688       C  0.47965619  0.61320561  0.87530661     0.02680
C1689       C  0.47823424  0.59750565  0.89270906    -0.11410
H1690       H  0.03244702  0.58444405  0.88255145     0.08280
H1691       H  0.00362822  0.63507028  0.84904442     0.05810
H1692       H  0.46102915  0.59188289  0.90360024     0.05650
O1693       O  0.28989679  0.58242915  0.80591278    -0.86930
O1694       O  0.37091795  0.71014942  0.87530550    -0.87090
O1695       O  0.33876179  0.67804782  0.80841859    -0.88760
O1696       O  0.37526523  0.63686285  0.84953966    -0.87520
O1697       O  0.35688550  0.60570328  0.87662053    -0.87110
O1698       O  0.29906233  0.68352502  0.80979360    -0.88480
O1699       O  0.37835664  0.69595205  0.84431999    -0.86960
O1700       O  0.33577382  0.62114471  0.80712756    -0.86540
Zr1701     Zr  0.33846564  0.64851089  0.83724614     2.84310
O1702       O  0.33802079  0.64498027  0.87250796    -1.08520
O1703       O  0.29113783  0.63061279  0.82658535    -1.09250
C1704       C  0.31554728  0.59831377  0.79858865     1.06180
C1705       C  0.38625130  0.71390732  0.85913925     1.06120
C1706       C  0.32243061  0.68744504  0.80126177     1.09110
C1707       C  0.37704363  0.62119209  0.86392488     1.06890
H1708       H  0.33101766  0.69593295  0.84607106     0.32440
O1709       O  0.31975448  0.67624077  0.85070769    -1.29470
H1710       H  0.31923172  0.58974218  0.84210951     0.32120
O1711       O  0.31071475  0.60038764  0.84780428    -1.31150
O1712       O  0.29576675  0.67691694  0.91585369    -0.86920
O1713       O  0.21642278  0.54439841  0.84841192    -0.88420
O1714       O  0.28889970  0.70801840  0.85219882    -0.87000
O1715       O  0.34367018  0.62299832  0.91001228    -0.87050
O1716       O  0.29730657  0.54953954  0.86898847    -0.86760
O1717       O  0.24323066  0.63242975  0.81016329    -0.86560
O1718       O  0.20657126  0.61873319  0.87621472    -0.86940
O1719       O  0.24155850  0.58148019  0.91480023    -0.86400
O1720       O  0.22360493  0.64941527  0.84894202    -0.87460
O1721       O  0.27780771  0.57065320  0.91294224    -0.86620
O1722       O  0.31891938  0.71720994  0.87947991    -0.87020
O1723       O  0.23776750  0.58760061  0.80809101    -0.86740
O1724       O  0.27037855  0.54112681  0.84008662    -0.86390
O1725       O  0.35142666  0.66883257  0.91218151    -0.86800
O1726       O  0.24881639  0.63990532  0.91393040    -0.87100
O1727       O  0.20646906  0.56021014  0.87818263    -0.88430
Zr1728     Zr  0.32165913  0.67422302  0.88615369     2.83100
Zr1729     Zr  0.26356252  0.58243597  0.83638448     2.83500
Zr1730     Zr  0.27204654  0.65820547  0.83991345     2.84090
Zr1731     Zr  0.30901019  0.59702978  0.88342859     2.83360
Zr1732     Zr  0.24507181  0.60916684  0.88529303     2.84220
O1733       O  0.26233929  0.57992345  0.87191360    -1.09000
O1734       O  0.27386396  0.65722271  0.87531943    -1.08510
C1735       C  0.26948782  0.66267448  0.92232452     1.06150
C1736       C  0.20083063  0.54104807  0.86431398     1.08770
C1737       C  0.30548832  0.72438949  0.86669325     1.06330
C1738       C  0.35651639  0.64856685  0.91764096     1.06690
C1739       C  0.28384548  0.53433908  0.85312247     1.06270
C1740       C  0.23345085  0.60765690  0.80136652     1.05820
C1741       C  0.20373640  0.63368294  0.86201508     1.06250
C1742       C  0.25502585  0.56898364  0.92140946     1.05760
H1743       H  0.22451691  0.60149235  0.84509346     0.32440
O1744       O  0.24409948  0.60982800  0.84982828    -1.30100
H1745       H  0.29271631  0.62599322  0.91157635     0.32460
O1746       O  0.29222185  0.62642501  0.89694326    -1.31490
O1747       O  0.40976530  0.91173633  0.97588566    -0.86930
O1748       O  0.46896963  0.54427678  0.04260201    -0.87090
O1749       O  0.38177968  0.96533093  0.01503629    -0.88760
O1750       O  0.45785348  0.51063105  0.97714345    -0.87520
O1751       O  0.00197264  0.51385636  0.97505003    -0.87110
O1752       O  0.36979046  0.93615407  0.04309680    -0.88480
O1753       O  0.44021726  0.52824352  0.01429074    -0.86960
O1754       O  0.40324741  0.95094007  0.97741723    -0.86540
Zr1755     Zr  0.43138975  0.98026320  0.00594951     2.84310
O1756       O  0.47854499  0.50737221  0.01772647    -1.08520
O1757       O  0.41188772  0.93289799  0.01742543    -1.09250
C1758       C  0.39929652  0.92729314  0.96928837     1.06180
C1759       C  0.45510339  0.54744678  0.02777334     1.06120
C1760       C  0.36399950  0.94921057  0.02894583     1.09110
C1761       C  0.48238869  0.51912132  0.96837072     1.06890
H1762       H  0.42022460  0.98819267  0.04615342     0.32440
O1763       O  0.43146298  0.97976344  0.04145249    -1.29470
H1764       H  0.45831754  0.96082559  0.97834035     0.32120
O1765       O  0.45851342  0.96065315  0.99298393    -1.31150
O1766       O  0.00566697  0.50587289  0.08325384    -0.86920
O1767       O  0.44939478  0.87534853  0.01405939    -0.88420
O1768       O  0.40821982  0.96063305  0.08097094    -0.87000
O1769       O  0.03869849  0.53866922  0.01319007    -0.87050
O1770       O  0.00904843  0.96086234  0.97610927    -0.86760
O1771       O  0.37392736  0.88493074  0.04059645    -0.86560
O1772       O  0.46045919  0.90796432  0.07966744    -0.86940
O1773       O  0.03578819  0.95327383  0.03996439    -0.86400
O1774       O  0.41528134  0.90301630  0.08064808    -0.87460
O1775       O  0.04761407  0.98377007  0.01254375    -0.86620
O1776       O  0.44735271  0.50621005  0.07995260    -0.87020
O1777       O  0.39122482  0.87335904  0.01254288    -0.86740
O1778       O  0.46857399  0.91602882  0.97552373    -0.86390
O1779       O  0.02542313  0.54801738  0.04405375    -0.86800
O1780       O  0.01165272  0.96631240  0.08168730    -0.87100
O1781       O  0.47811495  0.89115012  0.04232719    -0.88430
Zr1782     Zr  0.47903317  0.50651961  0.05320712     2.83100
Zr1783     Zr  0.43896642  0.91320894  0.00457863     2.83500
Zr1784     Zr  0.41161287  0.93203601  0.05293403     2.84090
Zr1785     Zr  0.00579935  0.98815480  0.00462847     2.83360
Zr1786     Zr  0.48670208  0.93928007  0.05129970     2.84220
O1787       O  0.48661136  0.94029815  0.01578789    -1.09000
O1788       O  0.45926528  0.95883337  0.06436069    -1.08510
C1789       C  0.01495561  0.98945367  0.09035148     1.06150
C1790       C  0.46354026  0.87203209  0.02862078     1.08770
C1791       C  0.42275639  0.98711425  0.08725664     1.06330
C1792       C  0.04216876  0.55539273  0.02838048     1.06690
C1793       C  0.49312489  0.93553877  0.96836248     1.06270
C1794       C  0.37118888  0.86817391  0.02556782     1.05820
C1795       C  0.43500536  0.89780296  0.08732476     1.06250
C1796       C  0.05309200  0.96942848  0.02574831     1.05760
H1797       H  0.43018897  0.89261270  0.04464161     0.32440
O1798       O  0.43889950  0.91235531  0.04006350    -1.30100
H1799       H  0.02636567  0.49851642  0.04516852     0.32460
O1800       O  0.00680668  0.98730157  0.04033054    -1.31490
O1801       O  0.34225606  0.68016521  0.41325467    -0.86930
O1802       O  0.28873098  0.54636968  0.34907505    -0.87090
O1803       O  0.29174047  0.57979984  0.41535594    -0.88760
O1804       O  0.36671711  0.62023113  0.37277974    -0.87520
O1805       O  0.37784951  0.64978408  0.34502554    -0.87110
O1806       O  0.24555664  0.57216431  0.41465379    -0.88480
O1807       O  0.31688760  0.56391117  0.37760616    -0.86960
O1808       O  0.35040893  0.64209366  0.41192690    -0.86540
Zr1809     Zr  0.31930609  0.60920322  0.38572566     2.84310
O1810       O  0.31922529  0.60896269  0.35011725    -1.08520
O1811       O  0.29077418  0.62789472  0.39766640    -1.09250
C1812       C  0.35487420  0.66627829  0.41942649     1.06180
C1813       C  0.30451267  0.54503763  0.36346841     1.06120
C1814       C  0.26566348  0.56876902  0.42241315     1.09110
C1815       C  0.38335068  0.63506353  0.35789052     1.06890
H1816       H  0.26424356  0.56041013  0.37905053     0.32440
O1817       O  0.27201553  0.57990325  0.37412241    -1.29470
H1818       H  0.35764162  0.66796190  0.37760570     0.32120
O1819       O  0.33790396  0.65623846  0.37327843    -1.31150
O1820       O  0.23965641  0.57488769  0.31093271    -0.86920
O1821       O  0.29511262  0.71023981  0.37525875    -0.88420
O1822       O  0.20816925  0.54926459  0.37398056    -0.87000
O1823       O  0.33901892  0.62972060  0.30790905    -0.87050
O1824       O  0.37235795  0.70510430  0.34715705    -0.86760
O1825       O  0.24047330  0.62646773  0.41453557    -0.86560
O1826       O  0.21186278  0.63159737  0.34988898    -0.86940
O1827       O  0.28758324  0.67607905  0.30978539    -0.86400
O1828       O  0.20263917  0.60500280  0.37875710    -0.87460
O1829       O  0.33337963  0.68283469  0.30957022    -0.86620
O1830       O  0.22622318  0.53872670  0.34572459    -0.87020
O1831       O  0.27982850  0.67229161  0.41413116    -0.86740
O1832       O  0.35530081  0.71696461  0.37542854    -0.86390
O1833       O  0.30082314  0.58344040  0.30875899    -0.86800
O1834       O  0.23234411  0.61371714  0.31108538    -0.87100
O1835       O  0.26595837  0.69217550  0.34724452    -0.88430
Zr1836     Zr  0.27229176  0.58012706  0.33853518     2.83100
Zr1837     Zr  0.30964835  0.67516879  0.38538467     2.83500
Zr1838     Zr  0.24345115  0.59877568  0.38579175     2.84090
Zr1839     Zr  0.33678680  0.65576048  0.33777788     2.83360
Zr1840     Zr  0.26094700  0.64555667  0.33869844     2.84220
O1841       O  0.30849489  0.67463376  0.34987361    -1.09000
O1842       O  0.24320187  0.59838978  0.35041155    -1.08510
C1843       C  0.22824088  0.58943953  0.30393180     1.06150
C1844       C  0.27958279  0.71176192  0.36082580     1.08770
C1845       C  0.20663128  0.53233700  0.35921814     1.06330
C1846       C  0.32396015  0.60393209  0.30062626     1.06690
C1847       C  0.37434714  0.72254474  0.36146235     1.06270
C1848       C  0.25572626  0.65243039  0.42159273     1.05820
C1849       C  0.19572863  0.61774263  0.36523992     1.06250
C1850       C  0.31328038  0.68670894  0.30231375     1.05760
H1851       H  0.25077702  0.65427642  0.37915305     0.32440
O1852       O  0.26217582  0.64620579  0.37411373    -1.30100
H1853       H  0.28902414  0.62683612  0.31169967     0.32460
O1854       O  0.28952264  0.62701469  0.32634367    -1.31490
O1855       O  0.20769881  0.87428456  0.68148236    -0.86930
O1856       O  0.07576610  0.79346445  0.74874599    -0.87090
O1857       O  0.13021717  0.87856016  0.71086634    -0.88760
O1858       O  0.17504541  0.84536314  0.74728817    -0.87520
O1859       O  0.17940903  0.80503823  0.74740548    -0.87110
O1860       O  0.10138044  0.86232363  0.68267301    -0.88480
O1861       O  0.11500619  0.83939730  0.74819563    -0.86960
O1862       O  0.19081507  0.88466899  0.71047373    -0.86540
Zr1863     Zr  0.14450204  0.84293662  0.71911480     2.84310
O1864       O  0.12566547  0.79531993  0.73033726    -1.08520
O1865       O  0.14350557  0.84459467  0.68366195    -1.09250
C1866       C  0.21001464  0.89085268  0.69652873     1.06180
C1867       C  0.09115840  0.81940083  0.75584025     1.06120
C1868       C  0.11466201  0.88092339  0.69688041     1.09110
C1869       C  0.18425324  0.82930873  0.75502251     1.06890
H1870       H  0.08543170  0.82261394  0.71364901     0.32440
O1871       O  0.09680462  0.81476897  0.70816700    -1.29470
H1872       H  0.19249533  0.83595723  0.71093726     0.32120
O1873       O  0.17289225  0.82464958  0.70622138    -1.31150
O1874       O  0.04259698  0.71782820  0.70738135    -0.86920
O1875       O  0.17548303  0.79907883  0.64212537    -0.88420
O1876       O  0.04709999  0.80265159  0.68410308    -0.87000
O1877       O  0.12721808  0.74566269  0.74615510    -0.87050
O1878       O  0.20322671  0.79138137  0.70484159    -0.86760
O1879       O  0.12056480  0.84612124  0.64359259    -0.86560
O1880       O  0.07437770  0.74774918  0.64239816    -0.86940
O1881       O  0.11804659  0.71345425  0.68075949    -0.86400
O1882       O  0.06682893  0.78628461  0.64448232    -0.87460
O1883       O  0.14786555  0.73033925  0.70855738    -0.86620
O1884       O  0.03645624  0.77169820  0.71050420    -0.87020
O1885       O  0.16613346  0.85211731  0.64220554    -0.86740
O1886       O  0.21312592  0.82045166  0.67680015    -0.86390
O1887       O  0.08094690  0.73704945  0.74579549    -0.86800
O1888       O  0.05903707  0.70892694  0.67765830    -0.87100
O1889       O  0.13537809  0.75431906  0.64087220    -0.88430
Zr1890     Zr  0.07808154  0.76691919  0.71894958     2.83100
Zr1891     Zr  0.17141505  0.82575013  0.67067818     2.83500
Zr1892     Zr  0.09571941  0.81593548  0.67275374     2.84090
Zr1893     Zr  0.15413609  0.77709564  0.71740385     2.83360
Zr1894     Zr  0.10576482  0.75014920  0.67027967     2.84220
O1895       O  0.15316925  0.77812669  0.68180684    -1.09000
O1896       O  0.07727116  0.76819798  0.68348848    -1.08510
C1897       C  0.04013074  0.70177413  0.69185819     1.06150
C1898       C  0.16006500  0.77398405  0.63400607     1.08770
C1899       C  0.02984878  0.78600263  0.69804350     1.06330
C1900       C  0.10106674  0.73311868  0.75307666     1.06690
C1901       C  0.21953166  0.80661913  0.68982812     1.06270
C1902       C  0.14573513  0.85611898  0.63550314     1.05820
C1903       C  0.06290713  0.76270488  0.63621650     1.06250
C1904       C  0.13318501  0.71103216  0.69510855     1.05760
H1905       H  0.12352791  0.79793956  0.64466324     0.32440
O1906       O  0.12396196  0.79766306  0.65930052    -1.30100
H1907       H  0.09846327  0.72942255  0.71031575     0.32460
O1908       O  0.10660315  0.74911602  0.70578135    -1.31490
O1909       O  0.12090095  0.74186682  0.14142003    -0.86930
O1910       O  0.20141097  0.87627531  0.20771191    -0.87090
O1911       O  0.17602350  0.84003079  0.14128369    -0.88760
O1912       O  0.20578841  0.79624172  0.18084842    -0.87520
O1913       O  0.18939141  0.77227422  0.21078731    -0.87110
O1914       O  0.13844972  0.84899868  0.14141762    -0.88480
O1915       O  0.21327441  0.85792487  0.18009018    -0.86960
O1916       O  0.16729553  0.77990987  0.14230011    -0.86540
Zr1917     Zr  0.17148623  0.81130093  0.17089811     2.84310
O1918       O  0.17109947  0.81213615  0.20643067    -1.08520
O1919       O  0.12456992  0.79295424  0.15864799    -1.09250
C1920       C  0.14689195  0.75626914  0.13450114     1.06180
C1921       C  0.21885959  0.87758210  0.19363156     1.06120
C1922       C  0.16210330  0.85176682  0.13392073     1.09110
C1923       C  0.20820337  0.78305695  0.19643805     1.06890
H1924       H  0.16501459  0.86020964  0.17718271     0.32440
O1925       O  0.15325446  0.84074570  0.18214350    -1.29470
H1926       H  0.15034633  0.75280836  0.17828562     0.32120
O1927       O  0.14232820  0.76440696  0.18300865    -1.31150
O1928       O  0.12557930  0.84597168  0.24585233    -0.86920
O1929       O  0.04673408  0.70935485  0.18174087    -0.88420
O1930       O  0.11980835  0.87159381  0.17997036    -0.87000
O1931       O  0.17263618  0.79259588  0.24727990    -0.87050
O1932       O  0.12953915  0.71636142  0.20826402    -0.86760
O1933       O  0.07872500  0.79595181  0.14044385    -0.86560
O1934       O  0.04041585  0.78718679  0.20611708    -0.86940
O1935       O  0.07167696  0.74444028  0.24579220    -0.86400
O1936       O  0.05804645  0.81472299  0.17720930    -0.87460
O1937       O  0.11129447  0.73917014  0.24749995    -0.86620
O1938       O  0.14520141  0.88094240  0.20951651    -0.87020
O1939       O  0.06675414  0.74888897  0.14250875    -0.86740
O1940       O  0.10108535  0.70487195  0.17980700    -0.86390
O1941       O  0.17988049  0.83862479  0.24634763    -0.86800
O1942       O  0.07963880  0.80688865  0.24549914    -0.87100
O1943       O  0.03544527  0.72755009  0.20963782    -0.88430
Zr1944     Zr  0.15224258  0.84080291  0.21770946     2.83100
Zr1945     Zr  0.09522424  0.74579517  0.17065756     2.83500
Zr1946     Zr  0.10637422  0.82226679  0.16991849     2.84090
Zr1947     Zr  0.14201461  0.76527412  0.21862478     2.83360
Zr1948     Zr  0.07642350  0.77527001  0.21740142     2.84220
O1949       O  0.09505239  0.74637284  0.20621859    -1.09000
O1950       O  0.10534164  0.82243006  0.20542130    -1.08510
C1951       C  0.09960845  0.83120019  0.25276159     1.06150
C1952       C  0.02976591  0.70752338  0.19639529     1.08770
C1953       C  0.13343260  0.88789347  0.19527299     1.06330
C1954       C  0.18386367  0.81872878  0.25408550     1.06690
C1955       C  0.11466766  0.69929797  0.19361740     1.06270
C1956       C  0.06495281  0.76974501  0.13405426     1.05820
C1957       C  0.03828267  0.80097726  0.19078627     1.06250
C1958       C  0.08650784  0.73431203  0.25405508     1.05760
H1959       H  0.05771300  0.76673957  0.17687653     0.32440
O1960       O  0.07711705  0.77496438  0.18192164    -1.30100
H1961       H  0.12297932  0.79420973  0.24471187     0.32460
O1962       O  0.12322118  0.79394160  0.23006274    -1.31490
O1963       O  0.45821836  0.51357720  0.57975822    -0.86930
O1964       O  0.38136539  0.87864495  0.51709349    -0.87090
O1965       O  0.37523626  0.95577456  0.54235810    -0.88760
O1966       O  0.41097564  0.91195616  0.58035869    -0.87520
O1967       O  0.45062734  0.90614436  0.57888129    -0.87110
O1968       O  0.39183265  0.98464415  0.51409796    -0.88480
O1969       O  0.37033773  0.89743775  0.54458509    -0.86960
O1970       O  0.41286841  0.97357817  0.58002056    -0.86540
Zr1971     Zr  0.41190117  0.94335546  0.55238624     2.84310
O1972       O  0.43061886  0.91538313  0.53963734    -1.08520
O1973       O  0.43980447  0.99082398  0.54071177    -1.09250
C1974       C  0.43214244  0.49838932  0.58677984     1.06180
C1975       C  0.36460911  0.87704511  0.53188263     1.06120
C1976       C  0.37270975  0.97072145  0.52788957     1.09110
C1977       C  0.42664742  0.90129220  0.58672071     1.06890
H1978       H  0.39102912  0.93506705  0.51222519     0.32440
O1979       O  0.41066311  0.94330165  0.51684089    -1.29470
H1980       H  0.45955311  0.96208777  0.57844623     0.32120
O1981       O  0.45932746  0.96225613  0.56379562    -1.31150
O1982       O  0.45547023  0.91101119  0.47520497    -0.86920
O1983       O  0.03730612  0.54328652  0.54177015    -0.88420
O1984       O  0.40891849  0.96441978  0.47593033    -0.87000
O1985       O  0.46094820  0.88412500  0.54174735    -0.87050
O1986       O  0.00735783  0.95914820  0.57962202    -0.86760
O1987       O  0.45382105  0.54081356  0.51577206    -0.86560
O1988       O  0.00780587  0.51357575  0.47551922    -0.86940
O1989       O  0.04153147  0.97037648  0.51238338    -0.86400
O1990       O  0.46829028  0.51960670  0.47682451    -0.87460
O1991       O  0.02531345  0.94161532  0.54073529    -0.86620
O1992       O  0.40150400  0.91821802  0.47614649    -0.87020
O1993       O  0.48552733  0.55226666  0.54214113    -0.86740
O1994       O  0.01521965  0.50528685  0.57999307    -0.86390
O1995       O  0.43316199  0.87283578  0.51319804    -0.86800
O1996       O  0.00072127  0.95104631  0.47437514    -0.87100
O1997       O  0.04580818  0.52791433  0.51143002    -0.88430
Zr1998     Zr  0.42919619  0.91492605  0.50426811     2.83100
Zr1999     Zr  0.48734855  0.50954969  0.55199831     2.83500
Zr2000     Zr  0.43861909  0.49096438  0.50516805     2.84090
Zr2001     Zr  0.47819230  0.93447970  0.55028452     2.83360
Zr2002     Zr  0.00431158  0.98159203  0.50307383     2.84220
O2003       O  0.00595208  0.98167132  0.53858849    -1.09000
O2004       O  0.45677297  0.96240397  0.49208809    -1.08510
C2005       C  0.48095749  0.92639111  0.46752164     1.06150
C2006       C  0.05342250  0.54592488  0.52628801     1.08770
C2007       C  0.39798362  0.93855380  0.46866240     1.06330
C2008       C  0.44532723  0.86653893  0.52763643     1.06690
C2009       C  0.01879934  0.48474699  0.58714875     1.06270
C2010       C  0.47126559  0.55842426  0.52934098     1.05820
C2011       C  0.99257415  0.52458325  0.46923620     1.06250
C2012       C  0.04426344  0.95576077  0.52687042     1.05760
H2013       H  0.99745542  0.52922110  0.51158386     0.32440
O2014       O  0.48594270  0.50965245  0.51640127    -1.30100
H2015       H  0.48507309  0.92245725  0.50979269     0.32460
O2016       O  0.47712446  0.93398253  0.51482803    -1.31490
C2017       C  0.01462248  0.56043466  0.94460735    -0.02290
C2018       C  0.48769174  0.53563780  0.94898925     0.07390
C2019       C  0.46499131  0.52699250  0.93484547    -0.02400
C2020       C  0.46867557  0.54325834  0.91721360    -0.02400
C2021       C  0.49474946  0.56912325  0.91354858     0.07530
C2022       C  0.01779796  0.57751036  0.92733986    -0.02600
Br2023     Br  0.05329689  0.61351989  0.92347688    -0.01150
Br2024     Br  0.04731497  0.57201152  0.96230257    -0.01220
Br2025     Br  0.43782979  0.52876254  0.89771511    -0.01180
Br2026     Br  0.42863961  0.49182832  0.93860839    -0.01160
C2027       C  0.40336604  0.59362851  0.86473684    -0.02290
C2028       C  0.40408651  0.62026254  0.86618261     0.07390
C2029       C  0.43029881  0.64518586  0.87140062    -0.02400
C2030       C  0.45570849  0.64358436  0.87362271    -0.02400
C2031       C  0.45493440  0.61717225  0.87032024     0.07530
C2032       C  0.42898930  0.59280204  0.86451120    -0.02600
Br2033     Br  0.42863276  0.55870058  0.85465378    -0.01150
Br2034     Br  0.36795208  0.55758545  0.86755177    -0.01220
Br2035     Br  0.99133856  0.67718761  0.88138766    -0.01180
Br2036     Br  0.43011805  0.67959849  0.87968227    -0.01160
C2037       C  0.07303112  0.70879046  0.78553514    -0.02290
C2038       C  0.09342443  0.71209048  0.77032980     0.07390
C2039       C  0.10561321  0.69391886  0.77143862    -0.02400
C2040       C  0.09585633  0.67203999  0.78616647    -0.02400
C2041       C  0.08000798  0.67237739  0.80319047     0.07530
C2042       C  0.06898955  0.69154349  0.80286561    -0.02600
Br2043     Br  0.05016611  0.69638515  0.82640916    -0.01150
Br2044     Br  0.04948442  0.72662947  0.78317766    -0.01220
Br2045     Br  0.10072567  0.63937100  0.78105818    -0.01180
Br2046     Br  0.13589564  0.69781394  0.75338640    -0.01160
C2047       C  0.16088803  0.63721465  0.87518098    -0.02290
C2048       C  0.17497781  0.63119529  0.85938533     0.07390
C2049       C  0.16050463  0.62131975  0.84074160    -0.02400
C2050       C  0.13421331  0.62037053  0.83744454    -0.02400
C2051       C  0.12431276  0.63338293  0.85141028     0.07530
C2052       C  0.13738513  0.64118645  0.87070105    -0.02600
Br2053     Br  0.12394643  0.65784639  0.89091078    -0.01150
Br2054     Br  0.16953341  0.63464004  0.90305008    -0.01220
Br2055     Br  0.10975981  0.59738172  0.81552382    -0.01180
Br2056     Br  0.17456348  0.60571542  0.82052107    -0.01160
C2057       C  0.02531510  0.78179741  0.09019104    -0.02290
C2058       C  0.00759515  0.75366928  0.08222538     0.07390
C2059       C  0.00889675  0.73057926  0.09178879    -0.02400
C2060       C  0.03008606  0.73619973  0.10665423    -0.02400
C2061       C  0.04517212  0.76377206  0.11612150     0.07530
C2062       C  0.04014781  0.78581000  0.10850517    -0.02600
Br2063     Br  0.05001300  0.82117510  0.12319193    -0.01150
Br2064     Br  0.03304702  0.81642865  0.07582861    -0.01220
Br2065     Br  0.03842133  0.70570944  0.11249743    -0.01180
Br2066     Br  0.48003873  0.69078875  0.08667200    -0.01160
C2067       C  0.48710036  0.81615155  0.03206274    -0.02290
C2068       C  0.46101697  0.79113285  0.03696108     0.07390
C2069       C  0.43509615  0.79167022  0.03611258    -0.02400
C2070       C  0.43569827  0.81774192  0.03155428    -0.02400
C2071       C  0.46244077  0.84384802  0.03011166     0.07530
C2072       C  0.48818328  0.84278977  0.03061259    -0.02600
Br2073     Br  0.02518784  0.87742715  0.02978744    -0.01150
Br2074     Br  0.02061617  0.81332403  0.02498945    -0.01220
Br2075     Br  0.39985662  0.81731435  0.02772386    -0.01180
Br2076     Br  0.39907461  0.75677123  0.04108644    -0.01160
C2077       C  0.44167111  0.61017035  0.03272249    -0.02290
C2078       C  0.45855027  0.62785473  0.01644792     0.07390
C2079       C  0.47609842  0.62016070  0.00525309    -0.02400
C2080       C  0.47516190  0.59396593  0.00928885    -0.02400
C2081       C  0.45769240  0.57592814  0.02508527     0.07530
C2082       C  0.44200375  0.58467057  0.03740693    -0.02600
Br2083     Br  0.42056829  0.56132550  0.06033474    -0.01150
Br2084     Br  0.41619475  0.61934682  0.04759094    -0.01220
Br2085     Br  0.99833892  0.58302479  0.99338884    -0.01180
Br2086     Br  0.00151492  0.64557809  0.98443105    -0.01160
C2087       C  0.37672614  0.63166394  0.94594783    -0.02290
C2088       C  0.37813070  0.65459734  0.93420011     0.07390
C2089       C  0.40038102  0.68313539  0.93879783    -0.02400
C2090       C  0.41925058  0.68820258  0.95526995    -0.02400
C2091       C  0.41391848  0.66564360  0.96893767     0.07530
C2092       C  0.39131901  0.63750029  0.96449914    -0.02600
Br2093     Br  0.37768704  0.60662953  0.98428253    -0.01150
Br2094     Br  0.35979594  0.59237196  0.93605530    -0.01220
Br2095     Br  0.45346361  0.72570392  0.95800896    -0.01180
Br2096     Br  0.40785230  0.71541459  0.92155471    -0.01160
C2097       C  0.46542063  0.78032644  0.16859790    -0.02290
C2098       C  0.45692155  0.79624561  0.18088340     0.07390
C2099       C  0.47441091  0.81263860  0.19723512    -0.02400
C2100       C  0.00083845  0.81377630  0.20085448    -0.02400
C2101       C  0.01015316  0.79919724  0.18780452     0.07530
C2102       C  0.49186907  0.78167231  0.17215322    -0.02600
Br2103     Br  0.00209450  0.75804366  0.15631009    -0.01150
Br2104     Br  0.44065307  0.75662366  0.14693912    -0.01220
Br2105     Br  0.02420121  0.83524929  0.22360315    -0.01180
Br2106     Br  0.46272629  0.83453411  0.21409855    -0.01160
C2107       C  0.39892083  0.83087091  0.12077141    -0.02290
C2108       C  0.41431228  0.84138285  0.13902121     0.07390
C2109       C  0.43672946  0.87030324  0.14022001    -0.02400
C2110       C  0.44422709  0.88831999  0.12311695    -0.02400
C2111       C  0.42795324  0.87838348  0.10512096     0.07530
C2112       C  0.40598733  0.84926166  0.10384321    -0.02600
Br2113     Br  0.38943571  0.83322381  0.07796727    -0.01150
Br2114     Br  0.36963061  0.79073236  0.11847897    -0.01220
Br2115     Br  0.47875070  0.92531799  0.12395900    -0.01180
Br2116     Br  0.45742544  0.88523871  0.16538737    -0.01160
C2117       C  0.34477806  0.73193632  0.28226426    -0.02290
C2118       C  0.32003853  0.70407728  0.28357471     0.07390
C2119       C  0.30241850  0.69213232  0.26636297    -0.02400
C2120       C  0.31001294  0.70749736  0.24808522    -0.02400
C2121       C  0.33157457  0.73675216  0.24775678     0.07530
C2122       C  0.34939658  0.74891545  0.26479691    -0.02600
Br2123     Br  0.37972545  0.78872037  0.26428122    -0.01150
Br2124     Br  0.37201488  0.74745828  0.30433002    -0.01220
Br2125     Br  0.29384850  0.68733958  0.22301412    -0.01180
Br2126     Br  0.26829032  0.65441691  0.26719893    -0.01160
C2127       C  0.23227174  0.75525952  0.20822330    -0.02290
C2128       C  0.23417950  0.77957970  0.19808685     0.07390
C2129       C  0.26132662  0.80041538  0.18988472    -0.02400
C2130       C  0.28600237  0.79786937  0.19327736    -0.02400
C2131       C  0.28312746  0.77216454  0.20157447     0.07530
C2132       C  0.25540323  0.75008691  0.20739094    -0.02600
Br2133     Br  0.24753207  0.71137636  0.21259668    -0.01150
Br2134     Br  0.19963532  0.72906872  0.22494880    -0.01220
Br2135     Br  0.32363820  0.83094638  0.18812130    -0.01180
Br2136     Br  0.26623037  0.83369182  0.17493409    -0.01160
C2137       C  0.16301854  0.91923730  0.60106080    -0.02290
C2138       C  0.16153426  0.90711179  0.58179992     0.07390
C2139       C  0.15471764  0.87811377  0.58014958    -0.02400
C2140       C  0.14969939  0.86136911  0.59774825    -0.02400
C2141       C  0.15152993  0.87364216  0.61703139     0.07530
C2142       C  0.15747410  0.90235217  0.61860503    -0.02600
Br2143     Br  0.15638707  0.91804372  0.64470529    -0.01150
Br2144     Br  0.17248432  0.95899457  0.60336565    -0.01220
Br2145     Br  0.13768735  0.82096175  0.59527378    -0.01180
Br2146     Br  0.15074501  0.86096445  0.55371366    -0.01160
C2147       C  0.09749027  0.92953608  0.52198694    -0.02290
C2148       C  0.11920697  0.94840086  0.53537085     0.07390
C2149       C  0.11781706  0.97167843  0.54418953    -0.02400
C2150       C  0.09376272  0.97496936  0.54068564    -0.02400
C2151       C  0.07137325  0.95524271  0.52802038     0.07530
C2152       C  0.07399008  0.93350571  0.51787139    -0.02600
Br2153     Br  0.04575807  0.90974745  0.49800231    -0.01150
Br2154     Br  0.09943688  0.89764655  0.50998787    -0.01220
Br2155     Br  0.09148818  0.50636367  0.55337307    -0.01180
Br2156     Br  0.14867869  0.49863841  0.56134952    -0.01160
C2157       C  0.27103383  0.56305389  0.45952547    -0.02290
C2158       C  0.25811192  0.55064417  0.44086650     0.07390
C2159       C  0.23724574  0.52102479  0.44019141    -0.02400
C2160       C  0.23405290  0.00305974  0.45676334    -0.02400
C2161       C  0.24972590  0.51517862  0.47474661     0.07530
C2162       C  0.26675863  0.54541198  0.47647704    -0.02600
Br2163     Br  0.28246069  0.56280475  0.50237082    -0.01150
Br2164     Br  0.29060982  0.60427921  0.46257955    -0.01220
Br2165     Br  0.20849313  0.96193751  0.45477179    -0.01180
Br2166     Br  0.21091263  0.50560877  0.41769631    -0.01160
C2167       C  0.31879708  0.94578748  0.52421796    -0.02290
C2168       C  0.34553775  0.97158559  0.52642283     0.07390
C2169       C  0.34644625  0.99836829  0.52528660    -0.02400
C2170       C  0.32082690  0.99927429  0.52349021    -0.02400
C2171       C  0.29448544  0.97381950  0.51970648     0.07530
C2172       C  0.29357249  0.94697614  0.52003513    -0.02600
Br2173     Br  0.25841053  0.91202310  0.51324274    -0.01150
Br2174     Br  0.31706177  0.90885227  0.52458047    -0.01220
Br2175     Br  0.32182891  0.53544073  0.52737346    -0.01180
Br2176     Br  0.38265045  0.53422242  0.52472019    -0.01160
C2177       C  0.13415120  0.95921995  0.69188775    -0.02290
C2178       C  0.10656423  0.95649607  0.69058779     0.07390
C2179       C  0.08181112  0.92929851  0.69347265    -0.02400
C2180       C  0.08447646  0.90465737  0.69591228    -0.02400
C2181       C  0.11198215  0.90716552  0.69670997     0.07530
C2182       C  0.13683791  0.93476483  0.69564027    -0.02600
Br2183     Br  0.17478507  0.93917148  0.69792579    -0.01150
Br2184     Br  0.16842597  0.99587739  0.68664431    -0.01220
Br2185     Br  0.05008327  0.86755984  0.69823972    -0.01180
Br2186     Br  0.04410993  0.92577565  0.69426344    -0.01160
C2187       C  0.05211474  0.51067337  0.63958723    -0.02290
C2188       C  0.07353482  0.50254666  0.63973781     0.07390
C2189       C  0.07698184  0.48895004  0.62247420    -0.02400
C2190       C  0.05724931  0.98050210  0.60639957    -0.02400
C2191       C  0.03746158  0.49076754  0.60534145     0.07530
C2192       C  0.03524942  0.50617974  0.62208180    -0.02600
Br2193     Br  0.00685462  0.51840548  0.62227718    -0.01150
Br2194     Br  0.04379612  0.52571359  0.66379748    -0.01220
Br2195     Br  0.05637183  0.95237951  0.58751390    -0.01180
Br2196     Br  0.10957681  0.98284460  0.62020689    -0.01160
C2197       C  0.11022921  0.63355920  0.70817471    -0.02290
C2198       C  0.13462435  0.63213361  0.70186165     0.07390
C2199       C  0.15837895  0.65650827  0.69327611    -0.02400
C2200       C  0.15796893  0.68238149  0.69134599    -0.02400
C2201       C  0.13323550  0.68363502  0.69684217     0.07530
C2202       C  0.10972793  0.65946646  0.70599722    -0.02600
Br2203     Br  0.07922805  0.66324249  0.71870954    -0.01150
Br2204     Br  0.07847476  0.60068178  0.72113733    -0.01220
Br2205     Br  0.19261106  0.71683208  0.68363707    -0.01180
Br2206     Br  0.19199666  0.65467107  0.68481270    -0.01160
C2207       C  0.17727793  0.56695591  0.75928314    -0.02290
C2208       C  0.17434228  0.58970050  0.75067102     0.07390
C2209       C  0.18647636  0.61566292  0.76190509    -0.02400
C2210       C  0.20956510  0.62306768  0.77494807    -0.02400
C2211       C  0.21458344  0.60134635  0.78289490     0.07530
C2212       C  0.19767069  0.57276865  0.77489106    -0.02600
Br2213     Br  0.20124966  0.54037757  0.78445574    -0.01150
Br2214     Br  0.14814340  0.52693804  0.75494837    -0.01220
Br2215     Br  0.23279972  0.66378501  0.78107562    -0.01180
Br2216     Br  0.16375913  0.63359572  0.76842165    -0.01160
C2217       C  0.28805698  0.96850718  0.37297087    -0.02290
C2218       C  0.31391757  0.96987175  0.36685083     0.07390
C2219       C  0.33722224  0.99632338  0.36016967    -0.02400
C2220       C  0.33428042  0.52103597  0.35899991    -0.02400
C2221       C  0.30799320  0.51932999  0.36440450     0.07530
C2222       C  0.28570337  0.99347357  0.37254808    -0.02600
Br2223     Br  0.25471129  0.99379102  0.38687562    -0.01150
Br2224     Br  0.25649068  0.93293699  0.38343085    -0.01220
Br2225     Br  0.36710954  0.55771840  0.35209192    -0.01180
Br2226     Br  0.37334642  0.99875748  0.35317116    -0.01160
C2227       C  0.37103910  0.91747253  0.41451626    -0.02290
C2228       C  0.34716784  0.92184910  0.41450059     0.07390
C2229       C  0.33897063  0.92989083  0.43264726    -0.02400
C2230       C  0.35566400  0.93547553  0.45027359    -0.02400
C2231       C  0.37990902  0.93171754  0.45024079     0.07530
C2232       C  0.38703945  0.92188813  0.43242640    -0.02600
Br2233     Br  0.41980546  0.91611672  0.43204568    -0.01150
Br2234     Br  0.38303766  0.90720276  0.38971368    -0.01220
Br2235     Br  0.34485486  0.94795002  0.47451409    -0.01180
Br2236     Br  0.30433304  0.93260531  0.43354269    -0.01160
C2237       C  0.29218458  0.78298364  0.33997950    -0.02290
C2238       C  0.27597301  0.78985019  0.35328820     0.07390
C2239       C  0.26219149  0.77184680  0.37012411    -0.02400
C2240       C  0.26438352  0.74687372  0.37329154    -0.02400
C2241       C  0.27845145  0.73875419  0.35879273     0.07530
C2242       C  0.29155789  0.75661414  0.34183985    -0.02600
Br2243     Br  0.30789001  0.74483306  0.32053379    -0.01150
Br2244     Br  0.31729226  0.81071480  0.32020525    -0.01220
Br2245     Br  0.24690766  0.72308918  0.39679362    -0.01180
Br2246     Br  0.23998437  0.78116032  0.38849707    -0.01160
C2247       C  0.21443485  0.84155051  0.30749564    -0.02290
C2248       C  0.23752220  0.83590157  0.30701888     0.07390
C2249       C  0.24458452  0.82770418  0.28845534    -0.02400
C2250       C  0.22668304  0.82144742  0.27144795    -0.02400
C2251       C  0.20319990  0.82638352  0.27198307     0.07530
C2252       C  0.19843441  0.83836015  0.28971718    -0.02600
Br2253     Br  0.17032527  0.85072375  0.28988409    -0.01150
Br2254     Br  0.20347737  0.85210356  0.33263036    -0.01220
Br2255     Br  0.23546544  0.80718401  0.24717293    -0.01180
Br2256     Br  0.28008619  0.82723661  0.28554674    -0.01160
C2257       C  0.41434098  0.51623431  0.13802279    -0.02290
C2258       C  0.38400045  0.00275680  0.13970809     0.07390
C2259       C  0.36708359  0.98900577  0.12243103    -0.02400
C2260       C  0.37970444  0.98434562  0.10513162    -0.02400
C2261       C  0.40989226  0.99594025  0.10405799     0.07530
C2262       C  0.42710434  0.51531134  0.11951711    -0.02600
Br2263     Br  0.46719308  0.54362683  0.11507561    -0.01150
Br2264     Br  0.43899801  0.53399660  0.16121518    -0.01220
Br2265     Br  0.35547876  0.96469696  0.08214936    -0.01180
Br2266     Br  0.32687756  0.97817750  0.12174492    -0.01160
C2267       C  0.25080710  0.92828857  0.18179911    -0.02290
C2268       C  0.24741139  0.90404822  0.19259815     0.07390
C2269       C  0.27149543  0.90499324  0.20194073    -0.02400
C2270       C  0.29916754  0.92924936  0.19936146    -0.02400
C2271       C  0.30262058  0.95315540  0.18817403     0.07530
C2272       C  0.27828699  0.95288054  0.17980353    -0.02600
Br2273     Br  0.28273266  0.98610044  0.16515168    -0.01150
Br2274     Br  0.21800530  0.92774202  0.16926595    -0.01220
Br2275     Br  0.33240996  0.92975474  0.21089729    -0.01180
Br2276     Br  0.26638438  0.87344753  0.21877748    -0.01160
C2277       C  0.34925718  0.60915288  0.24601542    -0.02290
C2278       C  0.35749793  0.58798123  0.24565916     0.07390
C2279       C  0.35325974  0.57093032  0.26303997    -0.02400
C2280       C  0.34036178  0.57475170  0.28053385    -0.02400
C2281       C  0.33415764  0.59747690  0.28142407     0.07530
C2282       C  0.33890459  0.61477828  0.26407316    -0.02600
Br2283     Br  0.33150268  0.64642735  0.26477200    -0.01150
Br2284     Br  0.35183248  0.63019121  0.22157527    -0.01220
Br2285     Br  0.33327538  0.55007533  0.30370146    -0.01180
Br2286     Br  0.36747205  0.54412268  0.26357733    -0.01160
C2287       C  0.46777831  0.63983019  0.21997245    -0.02290
C2288       C  0.44711427  0.63007028  0.20438122     0.07390
C2289       C  0.45430353  0.64456139  0.18554258    -0.02400
C2290       C  0.48179381  0.66899546  0.18252003    -0.02400
C2291       C  0.50176893  0.68010257  0.19863952     0.07530
C2292       C  0.49462603  0.66498985  0.21726930    -0.02600
Br2293     Br  0.02181337  0.67768860  0.23913091    -0.01150
Br2294     Br  0.45963025  0.61814949  0.24496870    -0.01220
Br2295     Br  0.49135795  0.68750478  0.15641173    -0.01180
Br2296     Br  0.42589713  0.63212065  0.16423067    -0.01160
C2297       C  0.41725704  0.62797583  0.33539018    -0.02290
C2298       C  0.41047454  0.63440302  0.35478971     0.07390
C2299       C  0.42943186  0.63944334  0.37109753    -0.02400
C2300       C  0.45535994  0.63926368  0.36776969    -0.02400
C2301       C  0.46143150  0.63184127  0.34845197     0.07530
C2302       C  0.44141727  0.62471689  0.33265424    -0.02600
Br2303     Br  0.44658418  0.60952970  0.30725724    -0.01150
Br2304     Br  0.39451054  0.62425372  0.31192457    -0.01220
Br2305     Br  0.48325990  0.65149263  0.38943018    -0.01180
Br2306     Br  0.42137163  0.64928386  0.39762266    -0.01160
C2307       C  0.06650402  0.67511085  0.29384148    -0.02290
C2308       C  0.05218139  0.68276675  0.30853869     0.07390
C2309       C  0.04943946  0.70728309  0.30516750    -0.02400
C2310       C  0.05664472  0.72103791  0.28627117    -0.02400
C2311       C  0.07412348  0.71596512  0.27254109     0.07530
C2312       C  0.07886132  0.69257646  0.27651080    -0.02600
Br2313     Br  0.09830426  0.68115573  0.25692048    -0.01150
Br2314     Br  0.06721561  0.63944052  0.29621861    -0.01220
Br2315     Br  0.03706553  0.74186468  0.27886293    -0.01180
Br2316     Br  0.03652492  0.72300652  0.32659507    -0.01160
C2317       C  0.02979491  0.57162603  0.45462178    -0.02290
C2318       C  0.00426594  0.54491325  0.45212665     0.07390
C2319       C  0.99053635  0.53734895  0.43313312    -0.02400
C2320       C  0.00362007  0.55531187  0.41625049    -0.02400
C2321       C  0.02972729  0.58174990  0.41860353     0.07530
C2322       C  0.04212850  0.59031180  0.43800123    -0.02600
Br2323     Br  0.07589179  0.62777256  0.44182402    -0.01150
Br2324     Br  0.04786927  0.58276678  0.48085925    -0.01220
Br2325     Br  0.98679965  0.54216740  0.38972425    -0.01180
Br2326     Br  0.45450691  0.00165911  0.43003651    -0.01160
C2327       C  0.11627574  0.58885077  0.37702076    -0.02290
C2328       C  0.11219054  0.61189863  0.37125561     0.07390
C2329       C  0.13597250  0.63740502  0.36353162    -0.02400
C2330       C  0.16284478  0.63891498  0.36061448    -0.02400
C2331       C  0.16721995  0.61632839  0.36775568     0.07530
C2332       C  0.14409640  0.59285239  0.37814334    -0.02600
Br2333     Br  0.14949815  0.56909532  0.39784565    -0.01150
Br2334     Br  0.08383157  0.55092700  0.38275928    -0.01220
Br2335     Br  0.19433593  0.67422904  0.34965593    -0.01180
Br2336     Br  0.13300212  0.67146616  0.35855646    -0.01160
C2337       C  0.28233248  0.91471094  0.03030831    -0.02290
C2338       C  0.27903447  0.93918877  0.03180040     0.07390
C2339       C  0.30364637  0.96704302  0.03075071    -0.02400
C2340       C  0.33128575  0.97026067  0.02876308    -0.02400
C2341       C  0.33472012  0.94574547  0.02884326     0.07530
C2342       C  0.31001931  0.91797079  0.02929811    -0.02600
Br2343     Br  0.31360879  0.88402334  0.02800799    -0.01150
Br2344     Br  0.24875920  0.87651400  0.02937183    -0.01220
Br2345     Br  0.36447369  0.50855941  0.02723694    -0.01180
Br2346     Br  0.30011335  0.50109763  0.03376010    -0.01160
C2347       C  0.21518682  0.91052368  0.09852405    -0.02290
C2348       C  0.19832360  0.90613859  0.08109875     0.07390
C2349       C  0.16914567  0.88387575  0.08114295    -0.02400
C2350       C  0.15708408  0.86671013  0.09860765    -0.02400
C2351       C  0.17458104  0.87008645  0.11556855     0.07530
C2352       C  0.20430694  0.89084370  0.11466293    -0.02600
Br2353     Br  0.23169385  0.89080220  0.13360003    -0.01150
Br2354     Br  0.25297313  0.94436030  0.10083719    -0.00200
Br2355     Br  0.11757157  0.83579783  0.09795825    -0.01180
Br2356     Br  0.14596121  0.87508207  0.05692635    -0.01160
C2357       C  0.20174406  0.01157369  0.95720362    -0.02290
C2358       C  0.21884497  0.51500309  0.97436555     0.07390
C2359       C  0.24804270  0.53714091  0.97435873    -0.02400
C2360       C  0.26010127  0.55435181  0.95688991    -0.02400
C2361       C  0.24264694  0.55115819  0.93998622     0.07530
C2362       C  0.21260741  0.53183973  0.94151301    -0.02600
Br2363     Br  0.18475921  0.03529075  0.92484934    -0.01150
Br2364     Br  0.16358694  0.97838711  0.95430395    -0.01220
Br2365     Br  0.29898999  0.58595027  0.95775168    -0.01180
Br2366     Br  0.27106083  0.54575464  0.99861536    -0.01160
C2367       C  0.10554389  0.99210327  0.03420012    -0.02290
C2368       C  0.08118104  0.97086823  0.02382226     0.07390
C2369       C  0.08403664  0.95190070  0.01044675    -0.02400
C2370       C  0.11027304  0.95208489  0.00904433    -0.02400
C2371       C  0.13448056  0.97291339  0.01975768     0.07530
C2372       C  0.13216301  0.99307315  0.03220780    -0.02600
Br2373     Br  0.16581752  0.52257227  0.04592634    -0.01150
Br2374     Br  0.10340335  0.52194587  0.04905764    -0.01220
Br2375     Br  0.11332430  0.92447366  0.99185885    -0.01180
Br2376     Br  0.05337844  0.92863160  0.99194351    -0.01160
C2377       C  0.18721530  0.78875534  0.60064305    -0.02290
C2378       C  0.17171623  0.76723585  0.61546987     0.07390
C2379       C  0.16839257  0.73939467  0.61266716    -0.02400
C2380       C  0.18139766  0.73392872  0.59586939    -0.02400
C2381       C  0.19435766  0.75476110  0.58029536     0.07530
C2382       C  0.19495077  0.78129604  0.58223060    -0.02600
Br2383     Br  0.20565675  0.80752911  0.55945411    -0.01150
Br2384     Br  0.20241064  0.82945180  0.60572014    -0.01220
Br2385     Br  0.18381253  0.69903425  0.59560476    -0.01180
Br2386     Br  0.14975078  0.70957497  0.63305232    -0.01160
C2387       C  0.30479415  0.81088445  0.55831076    -0.02290
C2388       C  0.28668111  0.79534696  0.54203551     0.07390
C2389       C  0.29421881  0.80675772  0.52214512    -0.02400
C2390       C  0.31997497  0.83305410  0.51867258    -0.02400
C2391       C  0.33714134  0.84942346  0.53522699     0.07530
C2392       C  0.32804389  0.83880840  0.55523709    -0.02600
Br2393     Br  0.34437200  0.86243955  0.57914659    -0.01150
Br2394     Br  0.29814289  0.79369069  0.58505630    -0.01220
Br2395     Br  0.32954967  0.84808990  0.49134196    -0.01180
Br2396     Br  0.26839559  0.78798529  0.49967303    -0.01160
C2397       C  0.11525029  0.62390950  0.52811977    -0.02290
C2398       C  0.13913823  0.62059768  0.52306145     0.07390
C2399       C  0.13472202  0.59264365  0.51969223    -0.02400
C2400       C  0.10667302  0.56892232  0.51865828    -0.02400
C2401       C  0.08292764  0.57164838  0.52529653     0.07530
C2402       C  0.08758180  0.59943190  0.53028542    -0.02600
Br2403     Br  0.05565741  0.60497691  0.53753012    -0.01150
Br2404     Br  0.11933495  0.66185291  0.53025070    -0.01220
Br2405     Br  0.10193137  0.53428376  0.50580525    -0.01180
Br2406     Br  0.16719340  0.58638110  0.51709524    -0.01160
C2407       C  0.24845848  0.67334321  0.47540587    -0.02290
C2408       C  0.22094270  0.67085946  0.47469130     0.07390
C2409       C  0.20619852  0.66491972  0.45606037    -0.02400
C2410       C  0.21754626  0.65878355  0.43874173    -0.02400
C2411       C  0.24449469  0.66016830  0.43960011     0.07530
C2412       C  0.26062035  0.66904663  0.45770227    -0.02600
Br2413     Br  0.29912591  0.67471629  0.45850198    -0.01150
Br2414     Br  0.26880392  0.68044939  0.50082348    -0.01220
Br2415     Br  0.19639745  0.64943733  0.41369595    -0.01180
Br2416     Br  0.17071764  0.66591161  0.45411832    -0.01160
C2417       C  0.32783859  0.72815877  0.77813795    -0.02290
C2418       C  0.33116908  0.70373949  0.78164117     0.07390
C2419       C  0.34238376  0.69455697  0.76562476    -0.02400
C2420       C  0.35106173  0.71017064  0.74743364    -0.02400
C2421       C  0.35487493  0.73806227  0.74654087     0.07530
C2422       C  0.34221568  0.74674571  0.76165679    -0.02600
Br2423     Br  0.34441544  0.78378056  0.75984927    -0.01150
Br2424     Br  0.30143440  0.73507901  0.79374744    -0.01220
Br2425     Br  0.35282541  0.69158051  0.72276157    -0.01180
Br2426     Br  0.34509651  0.66017336  0.76736634    -0.01160
C2427       C  0.46498028  0.79777457  0.69174810    -0.02290
C2428       C  0.44406360  0.77655225  0.70488819     0.07390
C2429       C  0.45226483  0.75861242  0.71536548    -0.02400
C2430       C  0.48118371  0.76553331  0.71580045    -0.02400
C2431       C  0.50041743  0.78305513  0.70024706     0.07530
C2432       C  0.49059372  0.79744700  0.68711303    -0.02600
Br2433     Br  0.00961100  0.81518106  0.66180562    -0.01150
Br2434     Br  0.46193048  0.83023052  0.68201416    -0.01220
Br2435     Br  0.49277021  0.75175710  0.73920716    -0.01180
Br2436     Br  0.42486993  0.72173665  0.72680081    -0.01160
C2437       C  0.27195491  0.82603465  0.69813019    -0.02290
C2438       C  0.24747333  0.80764497  0.68653148     0.07390
C2439       C  0.25041253  0.79199046  0.67033735    -0.02400
C2440       C  0.27631975  0.79184949  0.66734330    -0.02400
C2441       C  0.30032250  0.80907583  0.67958786     0.07530
C2442       C  0.29828814  0.82660628  0.69476892    -0.02600
Br2443     Br  0.33196764  0.85227239  0.71027109    -0.01150
Br2444     Br  0.27045699  0.85325050  0.71648911    -0.01220
Br2445     Br  0.27908797  0.76817035  0.64628568    -0.01180
Br2446     Br  0.22024826  0.77324494  0.65074522    -0.01160
C2447       C  0.41137716  0.87426609  0.64080041    -0.02290
C2448       C  0.38900786  0.84566701  0.63775873     0.07390
C2449       C  0.38306623  0.83397090  0.61804082    -0.02400
C2450       C  0.39683549  0.85188965  0.60126226    -0.02400
C2451       C  0.41610195  0.88150604  0.60423350     0.07530
C2452       C  0.42581533  0.89176961  0.62396029    -0.02600
Br2453     Br  0.46103920  0.92786898  0.62764531    -0.01150
Br2454     Br  0.42186468  0.88946319  0.66790396    -0.01220
Br2455     Br  0.39154380  0.83561386  0.57445470    -0.01180
Br2456     Br  0.35641121  0.79342025  0.61419655    -0.01160
C2457       C  0.14802132  0.96699138  0.88524227    -0.02290
C2458       C  0.12239503  0.96176317  0.87573972     0.07390
C2459       C  0.12297824  0.98159014  0.86141573    -0.02400
C2460       C  0.14897821  0.50696705  0.85704103    -0.02400
C2461       C  0.17439122  0.51292410  0.86721492     0.07530
C2462       C  0.17395232  0.99276693  0.88124946    -0.02600
Br2463     Br  0.20862112  0.00068689  0.89546705    -0.01150
Br2464     Br  0.14737723  0.93869374  0.90361608    -0.01220
Br2465     Br  0.14958134  0.53413496  0.83767638    -0.01180
Br2466     Br  0.08789367  0.97430737  0.84816447    -0.01160
C2467       C  0.02030148  0.89903979  0.93208959    -0.02290
C2468       C  0.03224813  0.91982134  0.91646135     0.07390
C2469       C  0.02837238  0.94401670  0.91686541    -0.02400
C2470       C  0.01505645  0.94882251  0.93363843    -0.02400
C2471       C  0.00419880  0.92870767  0.94976309     0.07530
C2472       C  0.00547936  0.90298235  0.94835759    -0.02600
Br2473     Br  0.98818263  0.87342783  0.96899302    -0.01150
Br2474     Br  0.02590553  0.86605700  0.93207659    -0.01220
Br2475     Br  0.51094632  0.98271918  0.93390782    -0.01180
Br2476     Br  0.04043935  0.97025063  0.89408314    -0.01160
C2477       C  0.43807619  0.73925395  0.84720175    -0.02290
C2478       C  0.41511922  0.74055637  0.85706083     0.07390
C2479       C  0.41998325  0.76776962  0.86399268    -0.02400
C2480       C  0.44681034  0.79299912  0.86044447    -0.02400
C2481       C  0.47023562  0.79093517  0.85235677     0.07530
C2482       C  0.46585346  0.76342031  0.84711371    -0.02600
Br2483     Br  0.49795996  0.75763796  0.84102980    -0.01150
Br2484     Br  0.43272099  0.70585711  0.83191369    -0.01220
Br2485     Br  0.45021493  0.83027749  0.86516995    -0.01180
Br2486     Br  0.38946973  0.77164526  0.87659381    -0.01160
C2487       C  0.06923000  0.84629283  0.77185021    -0.02290
C2488       C  0.08018712  0.82731177  0.77385003     0.07390
C2489       C  0.08120948  0.81665081  0.79313770    -0.02400
C2490       C  0.06916081  0.82303246  0.80995097    -0.02400
C2491       C  0.05523786  0.83927048  0.80737631     0.07530
C2492       C  0.05612564  0.85173082  0.78847765    -0.02600
Br2493     Br  0.03944290  0.87618028  0.78551876    -0.01150
Br2494     Br  0.07275758  0.86540076  0.74652824    -0.01220
Br2495     Br  0.07274963  0.81057551  0.83669300    -0.01180
Br2496     Br  0.10079655  0.79504436  0.79679931    -0.01160
C2497       C  0.16314324  0.55838925  0.26879664    -0.02290
C2498       C  0.17520697  0.55456657  0.25081714     0.07390
C2499       C  0.20497714  0.56448509  0.25003445    -0.02400
C2500       C  0.22161495  0.57382403  0.26772904    -0.02400
C2501       C  0.20978859  0.57774506  0.28575158     0.07530
C2502       C  0.18073821  0.57113161  0.28597618    -0.02600
Br2503     Br  0.16470194  0.57844579  0.30995058    -0.01150
Br2504     Br  0.12260085  0.54577217  0.27002549    -0.01220
Br2505     Br  0.26065284  0.58113582  0.26694194    -0.01180
Br2506     Br  0.22380206  0.56862732  0.22430976    -0.01160
C2507       C  0.16190800  0.94092949  0.20366893    -0.02290
C2508       C  0.13585257  0.91681457  0.19699422     0.07390
C2509       C  0.11179216  0.92042393  0.19331997    -0.02400
C2510       C  0.11345621  0.94712999  0.19755276    -0.02400
C2511       C  0.14015380  0.97150142  0.20286766     0.07530
C2512       C  0.16466161  0.96836136  0.20427009    -0.02600
Br2513     Br  0.20275451  0.00159932  0.20537882    -0.01150
Br2514     Br  0.19374196  0.93747482  0.21412512    -0.01220
Br2515     Br  0.07842469  0.94914505  0.19771109    -0.01180
Br2516     Br  0.07537343  0.88826606  0.18472442    -0.01160
C2517       C  0.03388501  0.51667865  0.14449214    -0.02290
C2518       C  0.06347278  0.52555866  0.14499921     0.07390
C2519       C  0.07561941  0.51771253  0.12888654    -0.02400
C2520       C  0.05866364  0.50268881  0.11199505    -0.02400
C2521       C  0.03049726  0.49815537  0.11006540     0.07530
C2522       C  0.01754446  0.50324153  0.12702688    -0.02600
Br2523     Br  0.47653327  0.48816553  0.12733964    -0.01150
Br2524     Br  0.01535435  0.52164680  0.16800631    -0.01220
Br2525     Br  0.07347351  0.48656414  0.09255817    -0.01180
Br2526     Br  0.11595453  0.52900343  0.12917983    -0.01160
C2527       C  0.13709192  0.66921653  0.18508367    -0.02290
C2528       C  0.11317219  0.67106074  0.19215836     0.07390
C2529       C  0.08697801  0.64566554  0.19617874    -0.02400
C2530       C  0.08471789  0.61855781  0.19343238    -0.02400
C2531       C  0.10825126  0.61660628  0.18567490     0.07530
C2532       C  0.13457614  0.64203629  0.18171788    -0.02600
Br2533     Br  0.16673929  0.63969626  0.17064675    -0.01150
Br2534     Br  0.17243065  0.70376265  0.17794113    -0.01220
Br2535     Br  0.04957676  0.58415364  0.20102773    -0.01180
Br2536     Br  0.05389133  0.64799921  0.20500843    -0.01160
C2537       C  0.18214425  0.97849750  0.35258370    -0.02290
C2538       C  0.18024161  0.50343743  0.35708164     0.07390
C2539       C  0.15277445  0.00094570  0.35749110    -0.02400
C2540       C  0.12763108  0.97380442  0.35567567    -0.02400
C2541       C  0.12971939  0.94874009  0.35293628     0.07530
C2542       C  0.15713634  0.95118600  0.35197443    -0.02600
Br2543     Br  0.16063515  0.91695403  0.34990305    -0.01150
Br2544     Br  0.21769464  0.48106789  0.34366336    -0.01220
Br2545     Br  0.09051359  0.97164290  0.35517783    -0.01180
Br2546     Br  0.14968386  0.53503975  0.35531184    -0.01160
C2547       C  0.08948124  0.86794307  0.26830120    -0.02290
C2548       C  0.09231087  0.84326264  0.27049965     0.07390
C2549       C  0.08964311  0.83109166  0.28987558    -0.02400
C2550       C  0.08337787  0.84299227  0.30685830    -0.02400
C2551       C  0.08043411  0.86761906  0.30463352     0.07530
C2552       C  0.08329873  0.87993974  0.28527771    -0.02600
Br2553     Br  0.07901338  0.91346679  0.28209969    -0.01150
Br2554     Br  0.09550300  0.88626751  0.24223390    -0.01220
Br2555     Br  0.08087608  0.82668654  0.33342542    -0.01180
Br2556     Br  0.09802414  0.80035269  0.29362328    -0.01160
C2557       C  0.50107858  0.91676890  0.41382249    -0.02290
C2558       C  0.99870821  0.88930866  0.41523160     0.07390
C2559       C  0.99250757  0.87517404  0.43418497    -0.02400
C2560       C  0.98609854  0.88701853  0.45110115    -0.02400
C2561       C  0.48817666  0.91431378  0.44969177     0.07530
C2562       C  0.49678077  0.92963837  0.43118350    -0.02600
Br2563     Br  0.50124164  0.96765835  0.42922960    -0.01150
Br2564     Br  0.50827177  0.93607520  0.38793977    -0.01220
Br2565     Br  0.97460469  0.86558784  0.47622474    -0.01180
Br2566     Br  0.99385336  0.83995180  0.43722551    -0.01160
C2567       C  0.40006348  0.77657561  0.36213190    -0.02290
C2568       C  0.40114584  0.75079916  0.36261172     0.07390
C2569       C  0.42768624  0.75193950  0.36603785    -0.02400
C2570       C  0.45266181  0.77857253  0.36994478    -0.02400
C2571       C  0.45156726  0.80438625  0.36934123     0.07530
C2572       C  0.42533780  0.80332341  0.36479257    -0.02600
Br2573     Br  0.42401690  0.83858122  0.36179831    -0.01150
Br2574     Br  0.36391765  0.77542010  0.35816104    -0.01220
Br2575     Br  0.48767992  0.77923728  0.37781551    -0.01180
Br2576     Br  0.42941521  0.71676176  0.36734533    -0.01160
C2577       C  0.08837325  0.63705449  0.03451092    -0.02290
C2578       C  0.11629618  0.64140206  0.03128742     0.07390
C2579       C  0.11937989  0.61783964  0.02478080    -0.02400
C2580       C  0.09481068  0.59064098  0.02141738    -0.02400
C2581       C  0.06736019  0.58532544  0.02795478     0.07530
C2582       C  0.06447794  0.60897218  0.03463304    -0.02600
Br2583     Br  0.02834922  0.60402934  0.04443352    -0.01150
Br2584     Br  0.08247499  0.66969068  0.03804486    -0.01220
Br2585     Br  0.09980581  0.56115456  0.00817497    -0.01180
Br2586     Br  0.15693170  0.62114971  0.02249868    -0.01160
C2587       C  0.14795580  0.71561728  0.11604091    -0.02290
C2588       C  0.15379420  0.74447124  0.11625282     0.07390
C2589       C  0.16566537  0.76167856  0.09875948    -0.02400
C2590       C  0.17076384  0.74982850  0.08113990    -0.02400
C2591       C  0.16604155  0.72131530  0.08137352     0.07530
C2592       C  0.15613511  0.70496203  0.09934931    -0.02600
Br2593     Br  0.15455063  0.66812013  0.10145458    -0.01150
Br2594     Br  0.12651622  0.68929380  0.13758954    -0.01220
Br2595     Br  0.18191883  0.77213182  0.05635983    -0.01180
Br2596     Br  0.17189689  0.80048071  0.09804430    -0.01160
C2597       C  0.24001841  0.69808665  0.95730376    -0.02290
C2598       C  0.25166554  0.69652119  0.97609793     0.07390
C2599       C  0.26847166  0.68309003  0.97731820    -0.02400
C2600       C  0.27399483  0.67164329  0.95973020    -0.02400
C2601       C  0.26256080  0.67342677  0.94090886     0.07530
C2602       C  0.24547817  0.68659064  0.93976002    -0.02600
Br2603     Br  0.23214486  0.69175780  0.91383165    -0.01150
Br2604     Br  0.21816526  0.71777075  0.95531039    -0.01220
Br2605     Br  0.29760898  0.65391818  0.96132134    -0.01180
Br2606     Br  0.28410969  0.68073613  0.00308390    -0.01160
C2607       C  0.30679628  0.80524948  0.99947224    -0.02290
C2608       C  0.29246028  0.78696899  0.01598129     0.07390
C2609       C  0.30184217  0.79688082  0.03590613    -0.02400
C2610       C  0.32547206  0.82475201  0.03914078    -0.02400
C2611       C  0.34291520  0.84105285  0.02251471     0.07530
C2612       C  0.33276344  0.83113218  0.00254118    -0.02600
Br2613     Br  0.35274966  0.85278364  0.97869941    -0.01150
Br2614     Br  0.28996374  0.79562910  0.97258422    -0.01220
Br2615     Br  0.33164896  0.84024445  0.06632085    -0.01180
Br2616     Br  0.28385594  0.77184380  0.05897070    -0.01160
C2617       C  0.03375110  0.75566224  0.58262343    -0.02290
C2618       C  0.01140636  0.72649303  0.58250855     0.07390
C2619       C  0.00304763  0.71157130  0.60114459    -0.02400
C2620       C  0.02047127  0.72285543  0.61837503    -0.02400
C2621       C  0.04353886  0.75146348  0.61832805     0.07530
C2622       C  0.04780653  0.76869875  0.60098795    -0.02600
Br2623     Br  0.07041282  0.81011937  0.60255539    -0.01150
Br2624     Br  0.04621413  0.77777693  0.55784817    -0.01220
Br2625     Br  0.01091356  0.69953032  0.64246656    -0.01180
Br2626     Br  0.46539003  0.67851529  0.60435145    -0.01160
C2627       C  0.47835234  0.60551684  0.51448181    -0.02290
C2628       C  0.47413700  0.58748400  0.53140345     0.07390
C2629       C  0.47141763  0.59706557  0.55080139    -0.02400
C2630       C  0.46708768  0.62055047  0.55257062    -0.02400
C2631       C  0.47439173  0.64035955  0.53663460     0.07530
C2632       C  0.48051872  0.63286059  0.51736549    -0.02600
Br2633     Br  0.49265465  0.65992996  0.49517629    -0.01150
Br2634     Br  0.48392071  0.59424615  0.48781021    -0.01220
Br2635     Br  0.44548007  0.62159087  0.57535382    -0.01180
Br2636     Br  0.47667486  0.58127014  0.57568417    -0.01160
C2637       C  0.41145779  0.78497682  0.52221007    -0.02290
C2638       C  0.43604145  0.78181258  0.52286450     0.07390
C2639       C  0.46319255  0.80614340  0.52723740    -0.02400
C2640       C  0.46565559  0.83325164  0.53068586    -0.02400
C2641       C  0.44162085  0.83705390  0.52767182     0.07530
C2642       C  0.41435592  0.81256428  0.52374435    -0.02600
Br2643     Br  0.38042065  0.81609432  0.52078175    -0.01150
Br2644     Br  0.37354245  0.75134456  0.51971619    -0.01220
Br2645     Br  0.00268588  0.86505801  0.53870798    -0.01180
Br2646     Br  0.99796554  0.80357709  0.52654903    -0.01160
C2647       C  0.39559544  0.70927801  0.43715175    -0.02290
C2648       C  0.37611713  0.67915304  0.43637478     0.07390
C2649       C  0.37714461  0.66165357  0.45211500    -0.02400
C2650       C  0.39253003  0.67444289  0.47004757    -0.02400
C2651       C  0.41125155  0.70465549  0.47106234     0.07530
C2652       C  0.41429697  0.72154463  0.45378726    -0.02600
Br2653     Br  0.44508190  0.76128018  0.45237204    -0.01150
Br2654     Br  0.39823510  0.73424117  0.41519620    -0.01220
Br2655     Br  0.38513787  0.65017153  0.49362635    -0.01180
Br2656     Br  0.35880842  0.62019901  0.44952649    -0.01160
C2657       C  0.32054319  0.77442881  0.85400274    -0.02290
C2658       C  0.30876055  0.75345775  0.86942428     0.07390
C2659       C  0.30096972  0.76088198  0.88795792    -0.02400
C2660       C  0.29786128  0.78531733  0.88920099    -0.02400
C2661       C  0.30809838  0.80578362  0.87334481     0.07530
C2662       C  0.32033429  0.80062651  0.85592532    -0.02600
Br2663     Br  0.33884645  0.83012967  0.83548895    -0.01150
Br2664     Br  0.34342213  0.77032552  0.83317752    -0.01220
Br2665     Br  0.27914789  0.79023578  0.91278071    -0.01180
Br2666     Br  0.30167083  0.74256299  0.91287038    -0.01160
C2667       C  0.39424979  0.91416932  0.93264559    -0.02290
C2668       C  0.38182015  0.91727815  0.95066011     0.07390
C2669       C  0.35250374  0.90956783  0.95095782    -0.02400
C2670       C  0.33525856  0.89690469  0.93370495    -0.02400
C2671       C  0.34768760  0.89340953  0.91580616     0.07530
C2672       C  0.37743305  0.90306529  0.91512711    -0.02600
Br2673     Br  0.39522039  0.90109576  0.89007075    -0.01150
Br2674     Br  0.43444112  0.92519209  0.93181762    -0.01220
Br2675     Br  0.29430378  0.88234310  0.93511955    -0.01180
Br2676     Br  0.33542422  0.91428640  0.97541653    -0.01160
C2677       C  0.24459550  0.85010936  0.79386639    -0.02290
C2678       C  0.23799464  0.86551743  0.80826222     0.07390
C2679       C  0.21227065  0.86641257  0.80614972    -0.02400
C2680       C  0.19515573  0.85517096  0.78873572    -0.02400
C2681       C  0.20176884  0.83994602  0.77401766     0.07530
C2682       C  0.22585003  0.83615565  0.77741687    -0.02600
Br2683     Br  0.23445735  0.81274625  0.75960145    -0.01150
Br2684     Br  0.28044469  0.84979256  0.79568754    -0.01220
Br2685     Br  0.16266614  0.86123667  0.78578755    -0.01180
Br2686     Br  0.19943875  0.88207611  0.82753957    -0.01160
C2687       C  0.26402681  0.95616447  0.85602527    -0.02290
C2688       C  0.28777143  0.95644611  0.84663967     0.07390
C2689       C  0.30958241  0.98220135  0.83794645    -0.02400
C2690       C  0.30775094  0.50758881  0.83921231    -0.02400
C2691       C  0.28440294  0.50728907  0.84936490     0.07530
C2692       C  0.26109349  0.98067488  0.85529615    -0.02600
Br2693     Br  0.22300473  0.97520318  0.85492114    -0.01150
Br2694     Br  0.23541680  0.92237495  0.87017299    -0.01220
Br2695     Br  0.33316597  0.54060871  0.82322587    -0.01180
Br2696     Br  0.34149768  0.98245009  0.82422933    -0.01160
C2697       C  0.48925392  0.62127474  0.68278508    -0.02290
C2698       C  0.46203736  0.61923048  0.68425833     0.07390
C2699       C  0.46054254  0.64432533  0.68863225    -0.02400
C2700       C  0.48597824  0.67084422  0.69208508    -0.02400
C2701       C  0.01330853  0.67315036  0.68971231     0.07530
C2702       C  0.01450568  0.64836489  0.68347571    -0.02600
Br2703     Br  0.04926194  0.65084826  0.67272544    -0.01150
Br2704     Br  0.49231339  0.58682510  0.68041240    -0.01220
Br2705     Br  0.48302329  0.70489420  0.69640088    -0.01180
Br2706     Br  0.42399035  0.64339221  0.68801398    -0.01160
C2707       C  0.41810539  0.51389024  0.64045633    -0.02290
C2708       C  0.41209768  0.53633834  0.63712529     0.07390
C2709       C  0.40875344  0.54355955  0.61723566    -0.02400
C2710       C  0.41372064  0.52990924  0.60069229    -0.02400
C2711       C  0.42346588  0.51019301  0.60401215     0.07530
C2712       C  0.42389416  0.00079223  0.62387735    -0.02600
Br2713     Br  0.42805554  0.96767868  0.62813462    -0.01150
Br2714     Br  0.42218129  0.00304641  0.66779028    -0.01220
Br2715     Br  0.40384868  0.53545231  0.57380800    -0.01180
Br2716     Br  0.39664456  0.57152087  0.61295019    -0.01160
C2717       C  0.27142861  0.96646666  0.68493035    -0.02290
C2718       C  0.28624405  0.97399009  0.70361669     0.07390
C2719       C  0.27706937  0.95356341  0.71941409    -0.02400
C2720       C  0.25241609  0.92629626  0.71693197    -0.02400
C2721       C  0.23703423  0.91893132  0.69844370     0.07530
C2722       C  0.24723026  0.93881171  0.68221754    -0.02600
Br2723     Br  0.22757167  0.92883053  0.65646434    -0.01150
Br2724     Br  0.28313130  0.99459774  0.66339143    -0.01220
Br2725     Br  0.24071408  0.89878324  0.73881760    -0.01180
Br2726     Br  0.29877762  0.96265452  0.74438079    -0.01160
C2727       C  0.34992900  0.57407071  0.75839042    -0.02290
C2728       C  0.32971504  0.56602229  0.74248837     0.07390
C2729       C  0.30720174  0.57229830  0.74404660    -0.02400
C2730       C  0.30309325  0.58364195  0.76219790    -0.02400
C2731       C  0.32200911  0.58964644  0.77872340     0.07530
C2732       C  0.34689249  0.58722825  0.77601277    -0.02600
Br2733     Br  0.37738921  0.60232322  0.79593210    -0.01150
Br2734     Br  0.38055919  0.56498793  0.75700488    -0.01220
Br2735     Br  0.27321814  0.59364087  0.76353913    -0.01180
Br2736     Br  0.28239072  0.56598207  0.72109069    -0.01160
C2737       C  0.83103666  0.04926168  0.72492525     0.02690
C2738       C  0.85536064  0.06044162  0.71228836    -0.13460
C2739       C  0.85883586  0.04274943  0.69794538     0.00190
C2740       C  0.83624253  0.01394602  0.69581223    -0.11980
C2741       C  0.81064533  0.00357861  0.70696628     0.02680
C2742       C  0.80838138  0.02116593  0.72171055    -0.11410
H2743       H  0.87160849  0.08285446  0.71417251     0.08280
H2744       H  0.83811243  0.99911933  0.68563241     0.05810
H2745       H  0.78915525  0.01269685  0.73104495     0.05650
C2746       C  0.91070755  0.05266724  0.65471687     0.02690
C2747       C  0.88580435  0.04131513  0.66666873    -0.13460
C2748       C  0.88570623  0.05435557  0.68529705     0.00190
C2749       C  0.91165617  0.07877769  0.69163461    -0.11980
C2750       C  0.93581487  0.09176520  0.67877145     0.02680
C2751       C  0.93489913  0.07865312  0.66016138    -0.11410
H2752       H  0.86645441  0.52255442  0.66100005     0.08280
H2753       H  0.91336557  0.08819120  0.70644820     0.05810
H2754       H  0.95347294  0.08813370  0.65015343     0.05650
C2755       C  0.75879506  0.38265983  0.82460645     0.02690
C2756       C  0.76842622  0.41217332  0.82607304    -0.13460
C2757       C  0.78573362  0.42840751  0.84221195     0.00190
C2758       C  0.79660666  0.41605992  0.85567982    -0.11980
C2759       C  0.78826058  0.38642471  0.85431255     0.02680
C2760       C  0.76803752  0.36976159  0.83908666    -0.11410
H2761       H  0.76073632  0.42218123  0.81539038     0.08280
H2762       H  0.81107453  0.43002452  0.86721855     0.05810
H2763       H  0.75893730  0.34667747  0.83829406     0.05650
C2764       C  0.82946476  0.37696474  0.89840528     0.02690
C2765       C  0.82703253  0.35048997  0.89364854    -0.13460
C2766       C  0.81089472  0.33448755  0.87701221     0.00190
C2767       C  0.79810548  0.34598363  0.86431782    -0.11980
C2768       C  0.80048295  0.37313657  0.86856070     0.02680
C2769       C  0.81577483  0.38792277  0.88625078    -0.11410
H2770       H  0.83780625  0.34219273  0.90308698     0.08280
H2771       H  0.78694528  0.33362050  0.85107368     0.05810
H2772       H  0.81764718  0.40810580  0.89090757     0.05650
C2773       C  0.92563016  0.21880593  0.49052913     0.02690
C2774       C  0.94119231  0.20902995  0.50194122    -0.13460
C2775       C  0.95001825  0.21878140  0.52201339     0.00190
C2776       C  0.94509589  0.24071283  0.52952941    -0.11980
C2777       C  0.93402553  0.25396907  0.51699959     0.02680
C2778       C  0.92295603  0.24188187  0.49801241    -0.11410
H2779       H  0.94575433  0.19341160  0.49504357     0.08280
H2780       H  0.95068535  0.24868829  0.54484924     0.05810
H2781       H  0.91251741  0.25079111  0.48888107     0.05650
C2782       C  0.99608889  0.21146968  0.56345171     0.02690
C2783       C  0.98179027  0.22218382  0.55167170    -0.13460
C2784       C  0.96490381  0.20677623  0.53472944     0.00190
C2785       C  0.96224601  0.17967860  0.53017825    -0.11980
C2786       C  0.97751066  0.16921427  0.54116906     0.02680
C2787       C  0.99454249  0.18544707  0.55769588    -0.11410
H2788       H  0.98410363  0.24264485  0.55607472     0.08280
H2789       H  0.94781233  0.16607553  0.51842800     0.05810
H2790       H  0.00595591  0.17730420  0.56655910     0.05650
C2791       C  0.74897892  0.21208467  0.99376074     0.02690
C2792       C  0.72282996  0.20146331  0.00422619    -0.13460
C2793       C  0.71875319  0.21895206  0.01840662     0.00190
C2794       C  0.74122128  0.24757056  0.02115687    -0.11980
C2795       C  0.76824730  0.25735792  0.01212725     0.02680
C2796       C  0.77204775  0.23920838  0.99868525    -0.11410
H2797       H  0.70598332  0.17964549  0.00107237     0.08280
H2798       H  0.73803378  0.26240861  0.03047983     0.05810
H2799       H  0.79261731  0.24682545  0.99115682     0.05650
C2800       C  0.66728886  0.20710848  0.06224435     0.02690
C2801       C  0.69222352  0.21864346  0.05025571    -0.13460
C2802       C  0.69180529  0.20726019  0.03080980     0.00190
C2803       C  0.66579873  0.18366494  0.02388651    -0.11980
C2804       C  0.64191079  0.16958976  0.03684355     0.02680
C2805       C  0.64277989  0.18185712  0.05581807    -0.11410
H2806       H  0.71176635  0.23644525  0.05633530     0.08280
H2807       H  0.66415053  0.17541556  0.00866769     0.05810
H2808       H  0.62413265  0.17171022  0.06570858     0.05650
C2809       C  0.50035340  0.37408555  0.39681393     0.02690
C2810       C  0.52542519  0.38538818  0.38487469    -0.13460
C2811       C  0.52713773  0.37040698  0.36760028     0.00190
C2812       C  0.50251832  0.34356363  0.36288778    -0.11980
C2813       C  0.97732926  0.33236607  0.37460362     0.02680
C2814       C  0.97644602  0.34770308  0.39147410    -0.11410
H2815       H  0.54307134  0.40607193  0.38933120     0.08280
H2816       H  0.50221853  0.33059696  0.35028218     0.05810
H2817       H  0.95700387  0.33893823  0.40060488     0.05650
C2818       C  0.57863169  0.38273026  0.32295536     0.02690
C2819       C  0.60280735  0.40847468  0.32872319    -0.13460
C2820       C  0.60375973  0.42095891  0.34754078     0.00190
C2821       C  0.57992238  0.40748972  0.36061777    -0.11980
C2822       C  0.55392119  0.38287905  0.35441697     0.02680
C2823       C  0.55397142  0.37067925  0.33527244    -0.11410
H2824       H  0.62134318  0.41845114  0.31868856     0.08280
H2825       H  0.58223990  0.41699160  0.37541279     0.05810
H2826       H  0.53537295  0.35172005  0.32947582     0.05650
C2827       C  0.58171549  0.04294167  0.16227724     0.02690
C2828       C  0.58669551  0.07091611  0.16560144    -0.13460
C2829       C  0.60489717  0.08788633  0.18128801     0.00190
C2830       C  0.61950379  0.07737852  0.19297319    -0.11980
C2831       C  0.61488016  0.04919969  0.19002750     0.02680
C2832       C  0.59478583  0.03187065  0.17501426    -0.11410
H2833       H  0.57627234  0.07945332  0.15605444     0.08280
H2834       H  0.63443819  0.09168689  0.20419898     0.05810
H2835       H  0.58901325  0.50961558  0.17282070     0.05650
C2836       C  0.65708408  0.03881504  0.23304391     0.02690
C2837       C  0.65470559  0.01248302  0.22733506    -0.13460
C2838       C  0.64218821  0.49945508  0.20877237     0.00190
C2839       C  0.63162276  0.01305407  0.19608259    -0.11980
C2840       C  0.63034706  0.03761890  0.20257810     0.02680
C2841       C  0.64393309  0.05065682  0.22113114    -0.11410
H2842       H  0.66348718  0.00257239  0.23716202     0.08280
H2843       H  0.62420788  0.00391289  0.18120126     0.05810
H2844       H  0.64471053  0.07002643  0.22663171     0.05650
C2845       C  0.53903685  0.34209148  0.82450381     0.02690
C2846       C  0.55250548  0.36508000  0.83806660    -0.13460
C2847       C  0.53971040  0.36442098  0.85697898     0.00190
C2848       C  0.51349072  0.33916390  0.86200389    -0.11980
C2849       C  0.99851204  0.31723294  0.84758589     0.02680
C2850       C  0.51122788  0.31967757  0.82851811    -0.11410
H2851       H  0.57304428  0.38294476  0.83351960     0.08280
H2852       H  0.00453430  0.33618332  0.87710084     0.05810
H2853       H  0.00032246  0.30299342  0.81719195     0.05650
C2854       C  0.54956983  0.41681931  0.90001361     0.02690
C2855       C  0.53703591  0.39327926  0.88663386    -0.13460
C2856       C  0.55346885  0.38972553  0.87127303     0.00190
C2857       C  0.58259563  0.41162053  0.86901782    -0.11980
C2858       C  0.59448896  0.43629708  0.88125393     0.02680
C2859       C  0.57838440  0.43825169  0.89723947    -0.11410
H2860       H  0.01425091  0.37822279  0.88823921     0.08280
H2861       H  0.59637993  0.41048246  0.85754219     0.05810
H2862       H  0.58789619  0.45712879  0.90696067     0.05650
C2863       C  0.87138210  0.32806793  0.65503359     0.02690
C2864       C  0.88015959  0.31198506  0.66673647    -0.13460
C2865       C  0.86293036  0.29425258  0.68289955     0.00190
C2866       C  0.83655085  0.29366679  0.68681544    -0.11980
C2867       C  0.82808107  0.31022811  0.67537358     0.02680
C2868       C  0.84547768  0.32723393  0.65944296    -0.11410
H2869       H  0.90078403  0.31417988  0.66309795     0.08280
H2870       H  0.82209691  0.28078034  0.69875122     0.05810
H2871       H  0.83874770  0.33970038  0.65037360     0.05650
C2872       C  0.87189346  0.25713777  0.72951347     0.02690
C2873       C  0.85881095  0.26515870  0.71462212    -0.13460
C2874       C  0.87374615  0.27905288  0.69668746     0.00190
C2875       C  0.89997811  0.27933326  0.69278019    -0.11980
C2876       C  0.91466475  0.27356690  0.70824230     0.02680
C2877       C  0.90072312  0.26445018  0.72713169    -0.11410
H2878       H  0.83691754  0.25990172  0.71737872     0.08280
H2879       H  0.90904953  0.28383882  0.67774245     0.05810
H2880       H  0.91149270  0.26121950  0.73984187     0.05650
C2881       C  0.70640432  0.17167580  0.49365836     0.02690
C2882       C  0.71826316  0.19613264  0.50609840    -0.13460
C2883       C  0.70615053  0.19545115  0.52527229     0.00190
C2884       C  0.68162728  0.16958663  0.53154846    -0.11980
C2885       C  0.66771875  0.14613468  0.51819442     0.02680
C2886       C  0.68053603  0.14737876  0.49937970    -0.11410
H2887       H  0.73681959  0.21553859  0.50052330     0.08280
H2888       H  0.67263113  0.16776342  0.54655280     0.05810
H2889       H  0.67036095  0.12921788  0.48906060     0.05650
C2890       C  0.71154227  0.25121428  0.56385468     0.02690
C2891       C  0.70032666  0.22640707  0.55171410    -0.13460
C2892       C  0.71822998  0.22194295  0.53817262     0.00190
C2893       C  0.74739829  0.24370599  0.53634852    -0.11980
C2894       C  0.75779094  0.27007393  0.54648432     0.02680
C2895       C  0.73999406  0.27312560  0.56064033    -0.11410
H2896       H  0.67763038  0.21077469  0.55297825     0.08280
H2897       H  0.76206123  0.24077284  0.52666352     0.05810
H2898       H  0.74841966  0.29296677  0.56924143     0.05650
C2899       C  0.70477047  0.49766414  0.99286718     0.02690
C2900       C  0.71533994  0.48166334  0.00279777    -0.13460
C2901       C  0.70044135  0.46360760  0.01952038     0.00190
C2902       C  0.67321453  0.46020897  0.02461833    -0.11980
C2903       C  0.66311525  0.47675631  0.01508977     0.02680
C2904       C  0.67955904  0.49631926  0.00002327    -0.11410
H2905       H  0.73522064  0.48382959  0.99721786     0.08280
H2906       H  0.65931984  0.44466817  0.03576044     0.05810
H2907       H  0.67165491  0.50928732  0.99291855     0.05650
C2908       C  0.71248320  0.42196287  0.06209038     0.02690
C2909       C  0.70172272  0.43683409  0.05099740    -0.13460
C2910       C  0.71308793  0.44874754  0.03167981     0.00190
C2911       C  0.73744060  0.44738588  0.02476832    -0.11980
C2912       C  0.75044351  0.43568501  0.03696787     0.02680
C2913       C  0.73706979  0.42188737  0.05504547    -0.11410
H2914       H  0.68444681  0.43877718  0.05781106     0.08280
H2915       H  0.74729707  0.45591070  0.01024486     0.05810
H2916       H  0.74628597  0.41149729  0.06394431     0.05650
C2917       C  0.54557831  0.09855669  0.40044969     0.02690
C2918       C  0.57205372  0.10103262  0.39548403    -0.13460
C2919       C  0.58433304  0.11051770  0.37619824     0.00190
C2920       C  0.56984756  0.11829956  0.36206094    -0.11980
C2921       C  0.54507692  0.11953583  0.36775170     0.02680
C2922       C  0.53328244  0.10968719  0.38721845    -0.11410
H2923       H  0.58254853  0.09436313  0.40648254     0.08280
H2924       H  0.57819333  0.12367900  0.34675233     0.05810
H2925       H  0.01417788  0.10990388  0.39224541     0.05650
C2926       C  0.53579991  0.16291977  0.32555325     0.02690
C2927       C  0.54847178  0.15216400  0.33894657    -0.13460
C2928       C  0.53165243  0.13113033  0.35359410     0.00190
C2929       C  0.50215881  0.12238931  0.35528666    -0.11980
C2930       C  0.99031629  0.13579457  0.34379935     0.02680
C2931       C  0.50680241  0.15477392  0.32833389    -0.11410
H2932       H  0.57141439  0.16037398  0.33785751     0.08280
H2933       H  0.98829501  0.10587232  0.36594315     0.05810
H2934       H  0.99706532  0.16382862  0.31861860     0.05650
C2935       C  0.87320673  0.08569204  0.22786886     0.02690
C2936       C  0.86139468  0.06061721  0.21595918    -0.13460
C2937       C  0.87788073  0.05701743  0.20063950     0.00190
C2938       C  0.90644044  0.07978039  0.19745118    -0.11980
C2939       C  0.91754999  0.10574907  0.20830829     0.02680
C2940       C  0.90081787  0.10844958  0.22352410    -0.11410
H2941       H  0.83942302  0.04417550  0.21903736     0.08280
H2942       H  0.92056433  0.07761303  0.18675138     0.05810
H2943       H  0.90964117  0.12811075  0.23241784     0.05650
C2944       C  0.86983634  0.00316041  0.15918974     0.02690
C2945       C  0.87827305  0.02914638  0.16957369    -0.13460
C2946       C  0.86597554  0.02955197  0.18849591     0.00190
C2947       C  0.84209334  0.00351889  0.19538215    -0.11980
C2948       C  0.83162304  0.47806189  0.18403821     0.02680
C2949       C  0.84675378  0.47754659  0.16688772    -0.11410
H2950       H  0.89438686  0.04900606  0.16260853     0.08280
H2951       H  0.83090851  0.00256687  0.20926287     0.05810
H2952       H  0.83930079  0.45741291  0.15878013     0.05650
C2953       C  0.75389004  0.33761629  0.32579018     0.02690
C2954       C  0.76929301  0.36356708  0.33667945    -0.13460
C2955       C  0.78627483  0.36579294  0.35385544     0.00190
C2956       C  0.78793967  0.34097490  0.35913255    -0.11980
C2957       C  0.77228738  0.31492151  0.34858355     0.02680
C2958       C  0.75501778  0.31326475  0.33219753    -0.11410
H2959       H  0.76774382  0.38166567  0.33119894     0.08280
H2960       H  0.80189919  0.34135275  0.37099167     0.05810
H2961       H  0.74328134  0.29317324  0.32388190     0.05650
C2962       C  0.83229073  0.42062600  0.39524363     0.02690
C2963       C  0.81660452  0.39474984  0.38437639    -0.13460
C2964       C  0.80253133  0.39366088  0.36587538     0.00190
C2965       C  0.80349495  0.41947643  0.35953734    -0.11980
C2966       C  0.81788418  0.44491351  0.37099577     0.02680
C2967       C  0.83307148  0.44560469  0.38828819    -0.11410
H2968       H  0.81541665  0.37579573  0.39099275     0.08280
H2969       H  0.79258700  0.42046179  0.34614572     0.05810
H2970       H  0.84432445  0.46538721  0.39701320     0.05650
C2971       C  0.65859929  0.08710380  0.73083171     0.02690
C2972       C  0.64895585  0.06338856  0.71743532    -0.13460
C2973       C  0.63011514  0.05925898  0.70107992     0.00190
C2974       C  0.62357989  0.08120573  0.69706926    -0.11980
C2975       C  0.63772795  0.10721713  0.70758387     0.02680
C2976       C  0.65582888  0.11031342  0.72366942    -0.11410
H2977       H  0.65744617  0.04908564  0.71892136     0.08280
H2978       H  0.60845374  0.07898136  0.68543906     0.05810
H2979       H  0.66848212  0.13164693  0.72985767     0.05650
C2980       C  0.58985070  0.00487405  0.65861561     0.02690
C2981       C  0.60514192  0.03104341  0.66919440    -0.13460
C2982       C  0.61704189  0.03216106  0.68854927     0.00190
C2983       C  0.61564955  0.00678378  0.69600961    -0.11980
C2984       C  0.60361803  0.48153094  0.68438841     0.02680
C2985       C  0.58957557  0.48033607  0.66627629    -0.11410
H2986       H  0.60708203  0.05018750  0.66222148     0.08280
H2987       H  0.62405213  0.00619863  0.71075671     0.05810
H2988       H  0.57867228  0.46019253  0.65795276     0.05650
C2989       C  0.74724226  0.49645668  0.49209689     0.02690
C2990       C  0.72244586  0.48402369  0.50420669    -0.13460
C2991       C  0.71957722  0.46649940  0.52117790     0.00190
C2992       C  0.74354918  0.46308519  0.52589424    -0.11980
C2993       C  0.76870303  0.47586396  0.51394383     0.02680
C2994       C  0.77006869  0.49198612  0.49682429    -0.11410
H2995       H  0.70602018  0.48894109  0.49997578     0.08280
H2996       H  0.74357655  0.45094276  0.53888552     0.05810
H2997       H  0.78932392  0.50179678  0.48747535     0.05650
C2998       C  0.66422356  0.42394587  0.56335016     0.02690
C2999       C  0.68953446  0.43637120  0.55161757    -0.13460
C3000       C  0.69219868  0.45258262  0.53388544     0.00190
C3001       C  0.66808045  0.45538901  0.52854798    -0.11980
C3002       C  0.64316686  0.44348831  0.54052505     0.02680
C3003       C  0.64121410  0.42766580  0.55778533    -0.11410
H3004       H  0.70667892  0.43306958  0.55684078     0.08280
H3005       H  0.66773970  0.46678268  0.51522856     0.05810
H3006       H  0.62182460  0.41840203  0.56699812     0.05650
C3007       C  0.83384718  0.25428518  0.22976986     0.02690
C3008       C  0.85698012  0.26384241  0.21628132    -0.13460
C3009       C  0.85652622  0.27587076  0.19727308     0.00190
C3010       C  0.83106666  0.27617530  0.19194223    -0.11980
C3011       C  0.80887932  0.26916785  0.20620292     0.02680
C3012       C  0.81109608  0.25899698  0.22531521    -0.11410
H3013       H  0.87491372  0.26153075  0.22107292     0.08280
H3014       H  0.82827675  0.28207018  0.17681539     0.05810
H3015       H  0.79432186  0.25337838  0.23656615     0.05650
C3016       C  0.91060300  0.32116610  0.15559477     0.02690
C3017       C  0.88572272  0.30817334  0.16776411    -0.13460
C3018       C  0.88257114  0.28873074  0.18349863     0.00190
C3019       C  0.90572361  0.28356711  0.18680177    -0.11980
C3020       C  0.93117487  0.29801792  0.17546839     0.02680
C3021       C  0.93309809  0.31587242  0.15951804    -0.11410
H3022       H  0.86952819  0.31413184  0.16502770     0.08280
H3023       H  0.90488265  0.26883794  0.19827428     0.05810
H3024       H  0.95267895  0.32653562  0.15052088     0.05650
C3025       C  0.93269170  0.17068876  0.98708871     0.02690
C3026       C  0.93943410  0.19347872  0.00071278    -0.13460
C3027       C  0.95676348  0.19796373  0.01811629     0.00190
C3028       C  0.96355185  0.17630096  0.02284971    -0.11980
C3029       C  0.95568890  0.15277270  0.00993885     0.02680
C3030       C  0.94250476  0.15145208  0.99142632    -0.11410
H3031       H  0.93035870  0.20699437  0.99753894     0.08280
H3032       H  0.97369620  0.17637258  0.03697064     0.05810
H3033       H  0.93791701  0.13395107  0.98104426     0.05650
C3034       C  0.98811594  0.24864341  0.06424658     0.02690
C3035       C  0.98435444  0.22871453  0.04881747    -0.13460
C3036       C  0.96552374  0.22337850  0.03218949     0.00190
C3037       C  0.95630523  0.24354631  0.02887927    -0.11980
C3038       C  0.96193200  0.26503951  0.04311012     0.02680
C3039       C  0.97445774  0.26502681  0.06170646    -0.11410
H3040       H  0.99682402  0.21803089  0.04972748     0.08280
H3041       H  0.94610735  0.24414660  0.01498142     0.05810
H3042       H  0.97591104  0.27996771  0.07334473     0.05650
C3043       C  0.57712790  0.15431558  0.82151632     0.02690
C3044       C  0.55072143  0.13799853  0.83185714    -0.13460
C3045       C  0.54908490  0.12399528  0.85049923     0.00190
C3046       C  0.57371641  0.12297329  0.85674518    -0.11980
C3047       C  0.59953335  0.13713421  0.84583660     0.02680
C3048       C  0.60147574  0.15385941  0.82891846    -0.11410
H3049       H  0.53172231  0.13677891  0.82531200     0.08280
H3050       H  0.57359683  0.11162501  0.87026492     0.05810
H3051       H  0.62202115  0.16607726  0.82123103     0.05650
C3052       C  0.49760453  0.08740684  0.89548955     0.02690
C3053       C  0.51902752  0.09401661  0.88072422    -0.13460
C3054       C  0.52294673  0.11258370  0.86414956     0.00190
C3055       C  0.50246007  0.12161627  0.86160345    -0.11980
C3056       C  0.97965681  0.11320497  0.87530508     0.02680
C3057       C  0.97823481  0.09750454  0.89270726    -0.11410
H3058       H  0.53244915  0.08444495  0.88254969     0.08280
H3059       H  0.50362812  0.13506919  0.84904238     0.05810
H3060       H  0.96102944  0.09188118  0.90359831     0.05650
O3061       O  0.78989976  0.08241723  0.80589442    -0.86930
O3062       O  0.87091704  0.21014529  0.87529882    -0.87090
O3063       O  0.83876133  0.17804525  0.80841231    -0.88760
O3064       O  0.87526669  0.13685855  0.84953305    -0.87520
O3065       O  0.85688704  0.10570403  0.87661679    -0.87110
O3066       O  0.79906300  0.18352446  0.80978987    -0.88480
O3067       O  0.87835669  0.19594682  0.84431364    -0.86960
O3068       O  0.83577654  0.12113175  0.80711157    -0.86540
Zr3069     Zr  0.83846717  0.14850357  0.83723495     2.84310
O3070       O  0.83801971  0.14497620  0.87249841    -1.08520
O3071       O  0.79113964  0.13061016  0.82657565    -1.09250
C3072       C  0.81555205  0.09829961  0.79856953     1.06180
C3073       C  0.88625048  0.21390295  0.85913281     1.06120
C3074       C  0.82243058  0.18744406  0.80125749     1.09110
C3075       C  0.87704509  0.12119090  0.86392061     1.06890
H3076       H  0.83101808  0.19592586  0.84606411     0.32440
O3077       O  0.81975564  0.17623342  0.85070041    -1.29470
H3078       H  0.81923429  0.08973659  0.84210268     0.32120
O3079       O  0.81071717  0.10038236  0.84779657    -1.31150
O3080       O  0.79576804  0.17691482  0.91584847    -0.86920
O3081       O  0.71642605  0.04439716  0.84840490    -0.88420
O3082       O  0.78890016  0.20801524  0.85219478    -0.87000
O3083       O  0.84367044  0.12299637  0.91000767    -0.87050
O3084       O  0.79730466  0.04953632  0.86898546    -0.86760
O3085       O  0.74323003  0.13242761  0.81015793    -0.86560
O3086       O  0.70657276  0.11873162  0.87621053    -0.86940
O3087       O  0.74155886  0.08147851  0.91479490    -0.86400
O3088       O  0.72360634  0.14941278  0.84893753    -0.87460
O3089       O  0.77780880  0.07065276  0.91293804    -0.86620
O3090       O  0.81891920  0.21720667  0.87947604    -0.87020
O3091       O  0.73777436  0.08760189  0.80807989    -0.86740
O3092       O  0.77038143  0.04112369  0.84008083    -0.86390
O3093       O  0.85142675  0.16883050  0.91217636    -0.86800
O3094       O  0.74881781  0.13990359  0.91392524    -0.87100
O3095       O  0.70647258  0.06020849  0.87817636    -0.88430
Zr3096     Zr  0.82165963  0.17421937  0.88614725     2.83100
Zr3097     Zr  0.76356713  0.08243250  0.83637253     2.83500
Zr3098     Zr  0.77204777  0.15820186  0.83990788     2.84090
Zr3099     Zr  0.80901068  0.09702777  0.88342261     2.83360
Zr3100     Zr  0.74507365  0.10916469  0.88528666     2.84220
O3101       O  0.76234227  0.07992354  0.87190336    -1.09000
O3102       O  0.77386464  0.15722074  0.87531375    -1.08510
C3103       C  0.76948911  0.16267285  0.92231978     1.06150
C3104       C  0.70083417  0.04104669  0.86430761     1.08770
C3105       C  0.80548789  0.22438636  0.86668973     1.06330
C3106       C  0.85651624  0.14856494  0.91763667     1.06690
C3107       C  0.78384528  0.03433585  0.85311915     1.06270
C3108       C  0.73345352  0.10765685  0.80135859     1.05820
C3109       C  0.70373796  0.13368163  0.86201110     1.06250
C3110       C  0.75502666  0.06898299  0.92140526     1.05760
H3111       H  0.72452040  0.10148891  0.84508647     0.32440
O3112       O  0.74410306  0.10982365  0.84982091    -1.30100
H3113       H  0.79271716  0.12599094  0.91157138     0.32460
O3114       O  0.79222268  0.12642239  0.89693824    -1.31490
O3115       O  0.90976599  0.41173635  0.97588579    -0.86930
O3116       O  0.96896870  0.04427679  0.04260165    -0.87090
O3117       O  0.88178041  0.46533096  0.01503631    -0.88760
O3118       O  0.95785274  0.01063098  0.97714284    -0.87520
O3119       O  0.50197204  0.01385653  0.97504973    -0.87110
O3120       O  0.86979113  0.43615403  0.04309677    -0.88480
O3121       O  0.94021644  0.02824345  0.01429034    -0.86960
O3122       O  0.90324812  0.45094010  0.97741737    -0.86540
Zr3123     Zr  0.93139044  0.48026313  0.00594973     2.84310
O3124       O  0.97854418  0.00737229  0.01772612    -1.08520
O3125       O  0.91188818  0.43289787  0.01742549    -1.09250
C3126       C  0.89929723  0.42729317  0.96928849     1.06180
C3127       C  0.95510250  0.04744675  0.02777293     1.06120
C3128       C  0.86400020  0.44921054  0.02894579     1.09110
C3129       C  0.98238807  0.01912140  0.96837019     1.06890
H3130       H  0.92022536  0.48819270  0.04615355     0.32440
O3131       O  0.93146376  0.47976346  0.04145266    -1.29470
H3132       H  0.95831822  0.46082558  0.97834055     0.32120
O3133       O  0.95851411  0.46065313  0.99298413    -1.31150
O3134       O  0.50566586  0.00587250  0.08325352    -0.86920
O3135       O  0.94939559  0.37534872  0.01405955    -0.88420
O3136       O  0.90822040  0.46063306  0.08097086    -0.87000
O3137       O  0.53869786  0.03866921  0.01318997    -0.87050
O3138       O  0.50904877  0.46086207  0.97610947    -0.86760
O3139       O  0.87392788  0.38493045  0.04059656    -0.86560
O3140       O  0.96045989  0.40796465  0.07966756    -0.86940
O3141       O  0.53578872  0.45327355  0.03996454    -0.86400
O3142       O  0.91528197  0.40301652  0.08064803    -0.87460
O3143       O  0.54761458  0.48376961  0.01254380    -0.86620
O3144       O  0.94735180  0.00621001  0.07995239    -0.87020
O3145       O  0.89122538  0.37335889  0.01254296    -0.86740
O3146       O  0.96857442  0.41602883  0.97552394    -0.86390
O3147       O  0.52542250  0.04801736  0.04405365    -0.86800
O3148       O  0.51165392  0.46631266  0.08168762    -0.87100
O3149       O  0.97811573  0.39115032  0.04232738    -0.88430
Zr3150     Zr  0.97903220  0.00651960  0.05320677     2.83100
Zr3151     Zr  0.93896701  0.41320893  0.00457882     2.83500
Zr3152     Zr  0.91161348  0.43203599  0.05293403     2.84090
Zr3153     Zr  0.50580001  0.48815464  0.00462872     2.83360
Zr3154     Zr  0.98670289  0.43928028  0.05129995     2.84220
O3155       O  0.98661197  0.44029813  0.01578814    -1.09000
O3156       O  0.95926588  0.45883336  0.06436088    -1.08510
C3157       C  0.51495695  0.48945399  0.09035187     1.06150
C3158       C  0.96354106  0.37203230  0.02862095     1.08770
C3159       C  0.92275697  0.48711424  0.08725658     1.06330
C3160       C  0.54216820  0.05539269  0.02838041     1.06690
C3161       C  0.99312530  0.43553872  0.96836268     1.06270
C3162       C  0.87118940  0.36817362  0.02556790     1.05820
C3163       C  0.93500602  0.39780329  0.08732474     1.06250
C3164       C  0.55309245  0.46942801  0.02574838     1.05760
H3165       H  0.93018976  0.39261283  0.04464177     0.32440
O3166       O  0.93890028  0.41235543  0.04006366    -1.30100
H3167       H  0.52636478  0.99851627  0.04516833     0.32460
O3168       O  0.50680760  0.48730162  0.04033079    -1.31490
O3169       O  0.84224599  0.18016134  0.41325684    -0.86930
O3170       O  0.78872491  0.04636964  0.34907138    -0.87090
O3171       O  0.79172523  0.07979391  0.41535364    -0.88760
O3172       O  0.86671063  0.12022961  0.37278175    -0.87520
O3173       O  0.87784544  0.14978391  0.34502800    -0.87110
O3174       O  0.74554193  0.07216002  0.41464910    -0.88480
O3175       O  0.81687951  0.06390825  0.37760361    -0.86960
O3176       O  0.85039590  0.14208726  0.41193167    -0.86540
Zr3177     Zr  0.81929822  0.10920058  0.38572593     2.84310
O3178       O  0.81922089  0.10896317  0.35011733    -1.08520
O3179       O  0.79076675  0.12789377  0.39766439    -1.09250
C3180       C  0.85486031  0.16627188  0.41943127     1.06180
C3181       C  0.80450564  0.04503601  0.36346471     1.06120
C3182       C  0.76564723  0.06876305  0.42240915     1.09110
C3183       C  0.88334530  0.13506260  0.35789307     1.06890
H3184       H  0.76423546  0.06040915  0.37904730     0.32440
O3185       O  0.77200866  0.07990282  0.37411996    -1.29470
H3186       H  0.85763631  0.16795976  0.37760762     0.32120
O3187       O  0.83789912  0.15623700  0.37327914    -1.31150
O3188       O  0.73965536  0.07489104  0.31092945    -0.86920
O3189       O  0.79510931  0.21024033  0.37525731    -0.88420
O3190       O  0.70816205  0.04926639  0.37397409    -0.87000
O3191       O  0.83901795  0.12972219  0.30790936    -0.87050
O3192       O  0.87235638  0.20510522  0.34715757    -0.86760
O3193       O  0.74046702  0.12646897  0.41453189    -0.86560
O3194       O  0.71186102  0.13160169  0.34988429    -0.86940
O3195       O  0.78758390  0.17608267  0.30978394    -0.86400
O3196       O  0.70263446  0.10500533  0.37875169    -0.87460
O3197       O  0.83337983  0.18283702  0.30957047    -0.86620
O3198       O  0.72621853  0.03873088  0.34571874    -0.87020
O3199       O  0.77982240  0.17229270  0.41412792    -0.86740
O3200       O  0.85529879  0.21696485  0.37542902    -0.86390
O3201       O  0.80082140  0.08344243  0.30875771    -0.86800
O3202       O  0.73234312  0.11372050  0.31108216    -0.87100
O3203       O  0.76595632  0.19217757  0.34724231    -0.88430
Zr3204     Zr  0.77228867  0.08012947  0.33853273     2.83100
Zr3205     Zr  0.80964422  0.17516888  0.38538354     2.83500
Zr3206     Zr  0.74344444  0.09877633  0.38578789     2.84090
Zr3207     Zr  0.83678451  0.15576150  0.33777829     2.83360
Zr3208     Zr  0.76094545  0.14555943  0.33869569     2.84220
O3209       O  0.80849279  0.17463551  0.34987257    -1.09000
O3210       O  0.74319811  0.09839196  0.35040778    -1.08510
C3211       C  0.72824000  0.08944294  0.30392855     1.06150
C3212       C  0.77958006  0.21176310  0.36082421     1.08770
C3213       C  0.70662516  0.03234003  0.35921105     1.06330
C3214       C  0.82395931  0.10393399  0.30062597     1.06690
C3215       C  0.87434565  0.22254556  0.36146298     1.06270
C3216       C  0.75571999  0.15243167  0.42158918     1.05820
C3217       C  0.69572562  0.11774646  0.36523456     1.06250
C3218       C  0.81328147  0.18671215  0.30231330     1.05760
H3219       H  0.75077333  0.15427821  0.37914983     0.32440
O3220       O  0.76217206  0.14620727  0.37411094    -1.30100
H3221       H  0.78902398  0.12683939  0.31169770     0.32460
O3222       O  0.78952138  0.12701740  0.32634172    -1.31490
O3223       O  0.70770859  0.37429228  0.68148569    -0.86930
O3224       O  0.57578158  0.29348284  0.74875076    -0.87090
O3225       O  0.63022384  0.37856855  0.71086813    -0.88760
O3226       O  0.67505320  0.34536925  0.74728941    -0.87520
O3227       O  0.67941731  0.30504441  0.74740557    -0.87110
O3228       O  0.60138766  0.36233415  0.68267410    -0.88480
O3229       O  0.61501991  0.33941483  0.74819806    -0.86960
O3230       O  0.69082115  0.38467605  0.71047588    -0.86540
Zr3231     Zr  0.64451270  0.34294859  0.71911599     2.84310
O3232       O  0.62568534  0.29533747  0.73034325    -1.08520
O3233       O  0.64351500  0.34460465  0.68366274    -1.09250
C3234       C  0.71002128  0.39085774  0.69653260     1.06180
C3235       C  0.59117312  0.31941856  0.75584399     1.06120
C3236       C  0.61466809  0.38093171  0.69688269     1.09110
C3237       C  0.68426015  0.32931378  0.75502331     1.06890
H3238       H  0.58544411  0.32263628  0.71364946     0.32440
O3239       O  0.59681707  0.31479178  0.70816684    -1.29470
H3240       H  0.69250392  0.33596641  0.71093686     0.32120
O3241       O  0.67290098  0.32465971  0.70622067    -1.31150
O3242       O  0.54262415  0.21787575  0.70739733    -0.86920
O3243       O  0.67549491  0.29909217  0.64212353    -0.88420
O3244       O  0.54710622  0.30265787  0.68410093    -0.87000
O3245       O  0.62722617  0.24566625  0.74615178    -0.87050
O3246       O  0.70323601  0.29138917  0.70483933    -0.86760
O3247       O  0.62057461  0.34613805  0.64359402    -0.86560
O3248       O  0.57439208  0.24776074  0.64239733    -0.86940
O3249       O  0.61805293  0.21346730  0.68075772    -0.86400
O3250       O  0.56683537  0.28629099  0.64448165    -0.87460
O3251       O  0.64786856  0.23034497  0.70855730    -0.86620
O3252       O  0.53647283  0.27171806  0.71050917    -0.87020
O3253       O  0.66614366  0.35213419  0.64220704    -0.86740
O3254       O  0.71313508  0.32045997  0.67679792    -0.86390
O3255       O  0.58096073  0.23706830  0.74579612    -0.86800
O3256       O  0.55905680  0.20898547  0.67766649    -0.87100
O3257       O  0.63538972  0.25433363  0.64087050    -0.88430
Zr3258     Zr  0.57810505  0.26694995  0.71895414     2.83100
Zr3259     Zr  0.67142668  0.32576353  0.67067715     2.83500
Zr3260     Zr  0.59572871  0.31594935  0.67275243     2.84090
Zr3261     Zr  0.65414763  0.27710597  0.71740346     2.83360
Zr3262     Zr  0.60578501  0.25017455  0.67027901     2.84220
O3263       O  0.65318681  0.27814256  0.68180636    -1.09000
O3264       O  0.57729023  0.26821889  0.68349224    -1.08510
C3265       C  0.54016158  0.20183167  0.69187223     1.06150
C3266       C  0.66007663  0.27399723  0.63400430     1.08770
C3267       C  0.52985866  0.28601301  0.69804459     1.06330
C3268       C  0.60107548  0.23312717  0.75307451     1.06690
C3269       C  0.71954013  0.30662614  0.68982536     1.06270
C3270       C  0.64574542  0.35613689  0.63550547     1.05820
C3271       C  0.56291541  0.26271110  0.63621630     1.06250
C3272       C  0.63318707  0.21103937  0.69510767     1.05760
H3273       H  0.62354086  0.29795815  0.64465963     0.32440
O3274       O  0.62397541  0.29768294  0.65929693    -1.30100
H3275       H  0.59847424  0.22944252  0.71031424     0.32460
O3276       O  0.60661687  0.24913688  0.70578083    -1.31490
O3277       O  0.62090115  0.24186626  0.14142049    -0.86930
O3278       O  0.70141160  0.37627543  0.20771168    -0.87090
O3279       O  0.67602403  0.34003010  0.14128379    -0.88760
O3280       O  0.70578816  0.29624119  0.18084914    -0.87520
O3281       O  0.68939163  0.27227485  0.21078848    -0.87110
O3282       O  0.63845062  0.34899856  0.14141733    -0.88480
O3283       O  0.71327477  0.35792440  0.18009014    -0.86960
O3284       O  0.66729573  0.27990927  0.14230049    -0.86540
Zr3285     Zr  0.67148635  0.31130056  0.17089846     2.84310
O3286       O  0.67109965  0.31213652  0.20643108    -1.08520
O3287       O  0.62457030  0.29295427  0.15864804    -1.09250
C3288       C  0.64689217  0.25626848  0.13450153     1.06180
C3289       C  0.71886010  0.37758185  0.19363136     1.06120
C3290       C  0.66210407  0.35176624  0.13392061     1.09110
C3291       C  0.70820344  0.28305714  0.19643907     1.06890
H3292       H  0.66501530  0.36020966  0.17718266     0.32440
O3293       O  0.65325499  0.34074582  0.18214359    -1.29470
H3294       H  0.65034625  0.25280822  0.17828660     0.32120
O3295       O  0.64232818  0.26440695  0.18300947    -1.31150
O3296       O  0.62558018  0.34597323  0.24585283    -0.86920
O3297       O  0.54673416  0.20935548  0.18174122    -0.88420
O3298       O  0.61980957  0.37159464  0.17996993    -0.87000
O3299       O  0.67263681  0.29259726  0.24728101    -0.87050
O3300       O  0.62953860  0.21636170  0.20826516    -0.86760
O3301       O  0.57872565  0.29595192  0.14044354    -0.86560
O3302       O  0.54041640  0.28718852  0.20611642    -0.86940
O3303       O  0.57167623  0.24444260  0.24579178    -0.86400
O3304       O  0.55804719  0.31472396  0.17720835    -0.87460
O3305       O  0.61129350  0.23917221  0.24750086    -0.86620
O3306       O  0.64520218  0.38094304  0.20951631    -0.87020
O3307       O  0.56675456  0.24888903  0.14250876    -0.86740
O3308       O  0.60108522  0.20487223  0.17980788    -0.86390
O3309       O  0.67988117  0.33862615  0.24634818    -0.86800
O3310       O  0.57963941  0.30689076  0.24549942    -0.87100
O3311       O  0.53544553  0.22755146  0.20963785    -0.88430
Zr3312     Zr  0.65224314  0.34080372  0.21770967     2.83100
Zr3313     Zr  0.59522444  0.24579545  0.17065792     2.83500
Zr3314     Zr  0.60637497  0.32226736  0.16991817     2.84090
Zr3315     Zr  0.64201468  0.26527486  0.21862572     2.83360
Zr3316     Zr  0.57642381  0.27527189  0.21740119     2.84220
O3317       O  0.59505264  0.24637426  0.20621900    -1.09000
O3318       O  0.60534244  0.32243163  0.20542100    -1.08510
C3319       C  0.59960929  0.33120206  0.25276223     1.06150
C3320       C  0.52976603  0.20752438  0.19639556     1.08770
C3321       C  0.63343372  0.38789421  0.19527264     1.06330
C3322       C  0.68386443  0.31873038  0.25408647     1.06690
C3323       C  0.61466725  0.19929820  0.19361847     1.06270
C3324       C  0.56495335  0.26974504  0.13405405     1.05820
C3325       C  0.53828333  0.30097859  0.19078534     1.06250
C3326       C  0.58650673  0.23431462  0.25405534     1.05760
H3327       H  0.55771344  0.26674042  0.17687628     0.32440
O3328       O  0.57711747  0.27496519  0.18192146    -1.30100
H3329       H  0.62297925  0.29421109  0.24471210     0.32460
O3330       O  0.62322125  0.29394271  0.23006298    -1.31490
O3331       O  0.95824230  0.01354143  0.57973696    -0.86930
O3332       O  0.88137250  0.37865673  0.51711225    -0.87090
O3333       O  0.87523526  0.45577587  0.54237198    -0.88760
O3334       O  0.91097398  0.41196134  0.58037085    -0.87520
O3335       O  0.95062161  0.40614326  0.57888734    -0.87110
O3336       O  0.89182973  0.48464202  0.51410990    -0.88480
O3337       O  0.87034586  0.39744154  0.54460926    -0.86960
O3338       O  0.91288492  0.47355600  0.58006939    -0.86540
Zr3339     Zr  0.91190631  0.44336495  0.55240641     2.84310
O3340       O  0.93062309  0.41539373  0.53965204    -1.08520
O3341       O  0.93979981  0.49083636  0.54073405    -1.09250
C3342       C  0.93215895  0.99838639  0.58674474     1.06180
C3343       C  0.86461762  0.37705216  0.53190349     1.06120
C3344       C  0.87270478  0.47071501  0.52789895     1.09110
C3345       C  0.92664320  0.40129395  0.58672810     1.06890
H3346       H  0.89103536  0.43507706  0.51224455     0.32440
O3347       O  0.91066919  0.44331299  0.51686046    -1.29470
H3348       H  0.95955745  0.46208978  0.57846558     0.32120
O3349       O  0.95933170  0.46226142  0.56381490    -1.31150
O3350       O  0.95546758  0.41101662  0.47521757    -0.86920
O3351       O  0.53730941  0.04328048  0.54175262    -0.88420
O3352       O  0.90892684  0.46443346  0.47594488    -0.87000
O3353       O  0.96095582  0.38413190  0.54175574    -0.87050
O3354       O  0.50736997  0.45915111  0.57962854    -0.86760
O3355       O  0.95379720  0.04079028  0.51576451    -0.86560
O3356       O  0.50780970  0.01357104  0.47550581    -0.86940
O3357       O  0.54152714  0.47037586  0.51238582    -0.86400
O3358       O  0.96829265  0.01960030  0.47680982    -0.87460
O3359       O  0.52531376  0.44161425  0.54073739    -0.86620
O3360       O  0.90150851  0.41823049  0.47616026    -0.87020
O3361       O  0.98551001  0.05225188  0.54213161    -0.86740
O3362       O  0.51522149  0.00528772  0.57997450    -0.86390
O3363       O  0.93316606  0.37284524  0.51320861    -0.86800
O3364       O  0.50071629  0.45105353  0.47438588    -0.87100
O3365       O  0.54581429  0.02791014  0.51141345    -0.88430
Zr3366     Zr  0.92919876  0.41493654  0.50428277     2.83100
Zr3367     Zr  0.98735466  0.00953964  0.55197117     2.83500
Zr3368     Zr  0.93861620  0.99095249  0.50514875     2.84090
Zr3369     Zr  0.97819642  0.43448625  0.55029582     2.83360
Zr3370     Zr  0.50430871  0.48159916  0.50308877     2.84220
O3371       O  0.50594526  0.48168157  0.53860490    -1.09000
O3372       O  0.95677218  0.46241487  0.49210314    -1.08510
C3373       C  0.98095362  0.42639694  0.46753236     1.06150
C3374       C  0.55342701  0.04592060  0.52627191     1.08770
C3375       C  0.89799164  0.43856796  0.46867510     1.06330
C3376       C  0.94533383  0.36654687  0.52764445     1.06690
C3377       C  0.51879305  0.98474693  0.58713829     1.06270
C3378       C  0.97123311  0.05839934  0.52933734     1.05820
C3379       C  0.49257815  0.02457916  0.46922343     1.06250
C3380       C  0.54426005  0.45575594  0.52686923     1.05760
H3381       H  0.49745601  0.02921754  0.51156189     0.32440
O3382       O  0.98594422  0.00964770  0.51637727    -1.30100
H3383       H  0.98507473  0.42246497  0.50980293     0.32460
O3384       O  0.97712648  0.43398970  0.51484009    -1.31490
C3385       C  0.51462205  0.06043442  0.94460643    -0.02290
C3386       C  0.98769135  0.03563784  0.94898853     0.07390
C3387       C  0.96499124  0.02699234  0.93484445    -0.02400
C3388       C  0.96867604  0.04325766  0.91721213    -0.02400
C3389       C  0.99475016  0.06912244  0.91354690     0.07530
C3390       C  0.51779787  0.07750953  0.92733844    -0.02600
Br3391     Br  0.55329666  0.11351916  0.92347546    -0.01150
Br3392     Br  0.54731429  0.07201180  0.96230196    -0.01220
Br3393     Br  0.93783058  0.02876121  0.89771344    -0.01180
Br3394     Br  0.92863926  0.99182847  0.93860763    -0.01160
C3395       C  0.90336662  0.09362736  0.86473586    -0.02290
C3396       C  0.90408752  0.12026160  0.86618019     0.07390
C3397       C  0.93029959  0.14518516  0.87139802    -0.02400
C3398       C  0.95570915  0.14358367  0.87362068    -0.02400
C3399       C  0.95493490  0.11717132  0.87031889     0.07530
C3400       C  0.92898967  0.09280077  0.86451049    -0.02600
Br3401     Br  0.92863253  0.05869899  0.85465329    -0.01150
Br3402     Br  0.86795238  0.05758468  0.86755222    -0.01220
Br3403     Br  0.49134049  0.17718728  0.88138136    -0.01180
Br3404     Br  0.93011853  0.17959815  0.87967836    -0.01160
C3405       C  0.57303311  0.20879262  0.78553079    -0.02290
C3406       C  0.59342819  0.21209414  0.77032612     0.07390
C3407       C  0.60561564  0.19392108  0.77143541    -0.02400
C3408       C  0.59585738  0.17204153  0.78616318    -0.02400
C3409       C  0.58000884  0.17237893  0.80318708     0.07530
C3410       C  0.56899032  0.19154497  0.80286138    -0.02600
Br3411     Br  0.55016538  0.19638594  0.82640430    -0.01150
Br3412     Br  0.54948500  0.22663000  0.78317250    -0.01220
Br3413     Br  0.60072579  0.13937180  0.78105543    -0.01180
Br3414     Br  0.63589949  0.19781573  0.75338490    -0.01160
C3415       C  0.66089025  0.13721547  0.87517786    -0.02290
C3416       C  0.67497955  0.13119548  0.85938201     0.07390
C3417       C  0.66050567  0.12132000  0.84073850    -0.02400
C3418       C  0.63421446  0.12037140  0.83744179    -0.02400
C3419       C  0.62431452  0.13338442  0.85140753     0.07530
C3420       C  0.63738733  0.14118770  0.87069822    -0.02600
Br3421     Br  0.62394848  0.15784707  0.89090840    -0.01150
Br3422     Br  0.66953559  0.13464050  0.90304691    -0.01220
Br3423     Br  0.60975983  0.09738197  0.81552177    -0.01180
Br3424     Br  0.67456362  0.10571485  0.82051775    -0.01160
C3425       C  0.52531589  0.28179719  0.09019039    -0.02290
C3426       C  0.50759585  0.25366902  0.08222475     0.07390
C3427       C  0.50889733  0.23057905  0.09178834    -0.02400
C3428       C  0.53008647  0.23619952  0.10665399    -0.02400
C3429       C  0.54517269  0.26377196  0.11612116     0.07530
C3430       C  0.54014857  0.28580990  0.10850459    -0.02600
Br3431     Br  0.55001398  0.32117522  0.12319114    -0.01150
Br3432     Br  0.53304793  0.31642841  0.07582788    -0.01220
Br3433     Br  0.53842117  0.20570900  0.11249776    -0.01180
Br3434     Br  0.98003943  0.19078862  0.08667145    -0.01160
C3435       C  0.98710108  0.31615171  0.03206255    -0.02290
C3436       C  0.96101768  0.29113301  0.03696088     0.07390
C3437       C  0.93509689  0.29167043  0.03611249    -0.02400
C3438       C  0.93569904  0.31774215  0.03155425    -0.02400
C3439       C  0.96244156  0.34384825  0.03011177     0.07530
C3440       C  0.98818405  0.34278997  0.03061264    -0.02600
Br3441     Br  0.52518841  0.37742720  0.02978772    -0.01150
Br3442     Br  0.52061650  0.31332401  0.02498905    -0.01220
Br3443     Br  0.89985741  0.31731452  0.02772357    -0.01180
Br3444     Br  0.89907534  0.25677148  0.04108642    -0.01160
C3445       C  0.94166981  0.11017009  0.03272160    -0.02290
C3446       C  0.95854868  0.12785420  0.01644683     0.07390
C3447       C  0.97609716  0.12016033  0.00525226    -0.02400
C3448       C  0.97516096  0.09396578  0.00928830    -0.02400
C3449       C  0.95769149  0.07592809  0.02508477     0.07530
C3450       C  0.94200271  0.08467051  0.03740629    -0.02600
Br3451     Br  0.92056744  0.06132570  0.06033425    -0.01150
Br3452     Br  0.91619366  0.11934677  0.04759012    -0.01220
Br3453     Br  0.49833849  0.08302481  0.99338865    -0.01180
Br3454     Br  0.50151394  0.14557781  0.98443033    -0.01160
C3455       C  0.87672466  0.13166302  0.94594577    -0.02290
C3456       C  0.87812955  0.15459598  0.93419727     0.07390
C3457       C  0.90037929  0.18313428  0.93879565    -0.02400
C3458       C  0.91924840  0.18820185  0.95526833    -0.02400
C3459       C  0.91391642  0.16564310  0.96893626     0.07530
C3460       C  0.89131707  0.13749973  0.96449749    -0.02600
Br3461     Br  0.87768495  0.10662925  0.98428112    -0.01150
Br3462     Br  0.85979463  0.09237097  0.93605370    -0.01220
Br3463     Br  0.95346118  0.22570339  0.95800764    -0.01180
Br3464     Br  0.90785059  0.21541369  0.92155279    -0.01160
C3465       C  0.96542101  0.28032699  0.16859716    -0.02290
C3466       C  0.95692181  0.29624608  0.18088263     0.07390
C3467       C  0.97441132  0.31263955  0.19723415    -0.02400
C3468       C  0.50083918  0.31377767  0.20085330    -0.02400
C3469       C  0.51015388  0.29919853  0.18780344     0.07530
C3470       C  0.99186968  0.28167332  0.17215236    -0.02600
Br3471     Br  0.50209511  0.25804429  0.15630947    -0.01150
Br3472     Br  0.94065333  0.25662372  0.14693859    -0.01220
Br3473     Br  0.52420238  0.33525154  0.22360161    -0.01180
Br3474     Br  0.96272659  0.33453506  0.21409749    -0.01160
C3475       C  0.89892139  0.33087125  0.12077096    -0.02290
C3476       C  0.91431254  0.34138325  0.13902084     0.07390
C3477       C  0.93672953  0.37030366  0.14021988    -0.02400
C3478       C  0.94422729  0.38832048  0.12311692    -0.02400
C3479       C  0.92795379  0.37838386  0.10512082     0.07530
C3480       C  0.90598809  0.34926202  0.10384283    -0.02600
Br3481     Br  0.88943703  0.33322428  0.07796673    -0.01150
Br3482     Br  0.86963135  0.29073265  0.11847838    -0.01220
Br3483     Br  0.97875051  0.42531877  0.12395926    -0.01180
Br3484     Br  0.95742517  0.38523891  0.16538738    -0.01160
C3485       C  0.84478045  0.23194009  0.28226503    -0.02290
C3486       C  0.82004103  0.20408093  0.28357455     0.07390
C3487       C  0.80242208  0.19213643  0.26636228    -0.02400
C3488       C  0.81001744  0.20750222  0.24808494    -0.02400
C3489       C  0.83157836  0.23675723  0.24775753     0.07530
C3490       C  0.84939959  0.24891997  0.26479806    -0.02600
Br3491     Br  0.87972830  0.28872494  0.26428325    -0.01150
Br3492     Br  0.87201605  0.24746108  0.30433155    -0.01220
Br3493     Br  0.79385529  0.18734551  0.22301308    -0.01180
Br3494     Br  0.76829380  0.15442105  0.26719704    -0.01160
C3495       C  0.73227300  0.25526117  0.20822516    -0.02290
C3496       C  0.73417995  0.27958053  0.19808802     0.07390
C3497       C  0.76132667  0.30041614  0.18988527    -0.02400
C3498       C  0.78600288  0.29787097  0.19327792    -0.02400
C3499       C  0.78312889  0.27216700  0.20157590     0.07530
C3500       C  0.75540507  0.25008935  0.20739329    -0.02600
Br3501     Br  0.74753526  0.21137972  0.21260124    -0.01150
Br3502     Br  0.69963661  0.22907030  0.22495066    -0.01220
Br3503     Br  0.82363822  0.33094809  0.18812069    -0.01180
Br3504     Br  0.76622938  0.33369138  0.17493353    -0.01160
C3505       C  0.66301562  0.41925314  0.60106514    -0.02290
C3506       C  0.66153759  0.40712996  0.58180468     0.07390
C3507       C  0.65473005  0.37813453  0.58015390    -0.02400
C3508       C  0.64971300  0.36138971  0.59775194    -0.02400
C3509       C  0.65153958  0.37366106  0.61703490     0.07530
C3510       C  0.65747544  0.40236839  0.61860909    -0.02600
Br3511     Br  0.65638368  0.41805638  0.64470963    -0.01150
Br3512     Br  0.67246763  0.45900599  0.60336936    -0.01220
Br3513     Br  0.63770623  0.32098363  0.59527685    -0.01180
Br3514     Br  0.65076983  0.36098851  0.55371788    -0.01160
C3515       C  0.59747139  0.42951097  0.52196794    -0.02290
C3516       C  0.61919666  0.44837426  0.53534680     0.07390
C3517       C  0.61781891  0.47165891  0.54416523    -0.02400
C3518       C  0.59376705  0.47495649  0.54066851    -0.02400
C3519       C  0.57136700  0.45522946  0.52801061     0.07530
C3520       C  0.57397355  0.43348772  0.51785888    -0.02600
Br3521     Br  0.54573324  0.40973493  0.49799314    -0.01150
Br3522     Br  0.59940237  0.39761298  0.50996901    -0.01220
Br3523     Br  0.59146522  0.00636603  0.55339069    -0.01180
Br3524     Br  0.64866215  0.99865525  0.56138445    -0.01160
C3525       C  0.77099269  0.06304570  0.45952470    -0.02290
C3526       C  0.75809235  0.05063530  0.44086090     0.07390
C3527       C  0.73724249  0.02101149  0.44017937    -0.02400
C3528       C  0.73404981  0.50307414  0.45677774    -0.02400
C3529       C  0.74971428  0.01516699  0.47473686     0.07530
C3530       C  0.76672088  0.04540211  0.47647458    -0.02600
Br3531     Br  0.78238839  0.06279187  0.50237603    -0.01150
Br3532     Br  0.79052681  0.10426852  0.46258637    -0.01220
Br3533     Br  0.70846267  0.46195550  0.45479500    -0.01180
Br3534     Br  0.71091382  0.00559316  0.41768250    -0.01160
C3535       C  0.81879366  0.44575497  0.52420142    -0.02290
C3536       C  0.84552434  0.47156106  0.52642086     0.07390
C3537       C  0.84641551  0.49833499  0.52528174    -0.02400
C3538       C  0.82078762  0.49922319  0.52349337    -0.02400
C3539       C  0.79445935  0.47376495  0.51969033     0.07530
C3540       C  0.79356430  0.44693008  0.52000630    -0.02600
Br3541     Br  0.75842421  0.41197550  0.51318116    -0.01150
Br3542     Br  0.81708445  0.40883223  0.52455105    -0.01220
Br3543     Br  0.82189848  0.03551407  0.52732514    -0.01180
Br3544     Br  0.88269879  0.03424317  0.52476516    -0.01160
C3545       C  0.63415627  0.45922560  0.69189239    -0.02290
C3546       C  0.60656920  0.45650100  0.69059116     0.07390
C3547       C  0.58181569  0.42930350  0.69347466    -0.02400
C3548       C  0.58448110  0.40466276  0.69591466    -0.02400
C3549       C  0.61198714  0.40717207  0.69671378     0.07530
C3550       C  0.63684294  0.43477097  0.69564504    -0.02600
Br3551     Br  0.67479016  0.43917731  0.69793040    -0.01150
Br3552     Br  0.66843136  0.49588298  0.68664960    -0.01220
Br3553     Br  0.55008792  0.36756439  0.69823943    -0.01180
Br3554     Br  0.54411413  0.42577999  0.69426188    -0.01160
C3555       C  0.55211478  0.01067955  0.63957884    -0.02290
C3556       C  0.57352193  0.00253630  0.63973473     0.07390
C3557       C  0.57696244  0.98893260  0.62247265    -0.02400
C3558       C  0.55726895  0.48051736  0.60640119    -0.02400
C3559       C  0.53745622  0.99076962  0.60533301     0.07530
C3560       C  0.53526513  0.00620459  0.62206757    -0.02600
Br3561     Br  0.50694368  0.01852075  0.62224309    -0.01150
Br3562     Br  0.54379123  0.02571773  0.66378888    -0.01220
Br3563     Br  0.55640256  0.45240515  0.58751059    -0.01180
Br3564     Br  0.60959957  0.48286665  0.62020937    -0.01160
C3565       C  0.61022957  0.13356198  0.70817120    -0.02290
C3566       C  0.63462386  0.13213564  0.70185675     0.07390
C3567       C  0.65837833  0.15651123  0.69327186    -0.02400
C3568       C  0.65796809  0.18238482  0.69134227    -0.02400
C3569       C  0.63323537  0.18363951  0.69683979     0.07530
C3570       C  0.60972899  0.15947034  0.70599607    -0.02600
Br3571     Br  0.57923252  0.16324571  0.71871483    -0.01150
Br3572     Br  0.57847515  0.10068351  0.72113307    -0.01220
Br3573     Br  0.69261033  0.21683508  0.68363312    -0.01180
Br3574     Br  0.69199680  0.15467488  0.68480904    -0.01160
C3575       C  0.67727841  0.06695529  0.75927668    -0.02290
C3576       C  0.67434109  0.08969929  0.75066515     0.07390
C3577       C  0.68647373  0.11566100  0.76190014    -0.02400
C3578       C  0.70956284  0.12306659  0.77494320    -0.02400
C3579       C  0.71458441  0.10134632  0.78288802     0.07530
C3580       C  0.69767221  0.07276865  0.77488400    -0.02600
Br3581     Br  0.70125091  0.04037754  0.78444930    -0.01150
Br3582     Br  0.64814451  0.02693703  0.75494264    -0.01220
Br3583     Br  0.73279314  0.16378338  0.78107432    -0.01180
Br3584     Br  0.66375470  0.13359195  0.76841636    -0.01160
C3585       C  0.78806738  0.46851320  0.37298701    -0.02290
C3586       C  0.81392295  0.46987337  0.36685850     0.07390
C3587       C  0.83722421  0.49632139  0.36016888    -0.02400
C3588       C  0.83427759  0.02103750  0.35900138    -0.02400
C3589       C  0.80798652  0.01932811  0.36439878     0.07530
C3590       C  0.78571561  0.49348062  0.37256429    -0.02600
Br3591     Br  0.75473840  0.49380930  0.38690622    -0.01150
Br3592     Br  0.75650564  0.43294772  0.38345648    -0.01220
Br3593     Br  0.86710852  0.05772252  0.35210113    -0.01180
Br3594     Br  0.87334262  0.49875007  0.35315936    -0.01160
C3595       C  0.87104438  0.41746985  0.41452800    -0.02290
C3596       C  0.84717771  0.42185395  0.41450725     0.07390
C3597       C  0.83898608  0.42990887  0.43265080    -0.02400
C3598       C  0.85568137  0.43550139  0.45027723    -0.02400
C3599       C  0.87992038  0.43173332  0.45025029     0.07530
C3600       C  0.88704444  0.42188980  0.43243951    -0.02600
Br3601     Br  0.91980212  0.41610493  0.43206451    -0.01150
Br3602     Br  0.88303699  0.40718276  0.38973022    -0.01220
Br3603     Br  0.84488254  0.44800193  0.47450955    -0.01180
Br3604     Br  0.80435119  0.43262859  0.43354283    -0.01160
C3605       C  0.79218322  0.28298642  0.33998101    -0.02290
C3606       C  0.77596973  0.28985096  0.35328940     0.07390
C3607       C  0.76218556  0.27184506  0.37012367    -0.02400
C3608       C  0.76437757  0.24687190  0.37329017    -0.02400
C3609       C  0.77844835  0.23875502  0.35879193     0.07530
C3610       C  0.79155685  0.25661699  0.34184033    -0.02600
Br3611     Br  0.80789224  0.24483869  0.32053468    -0.01150
Br3612     Br  0.81729276  0.31071994  0.32020864    -0.01220
Br3613     Br  0.74689795  0.22308363  0.39679010    -0.01180
Br3614     Br  0.73997475  0.28115525  0.38849551    -0.01160
C3615       C  0.71443766  0.34155648  0.30749647    -0.02290
C3616       C  0.73752549  0.33590818  0.30702027     0.07390
C3617       C  0.74458683  0.32770899  0.28845695    -0.02400
C3618       C  0.72668451  0.32145039  0.27144965    -0.02400
C3619       C  0.70320101  0.32638598  0.27198431     0.07530
C3620       C  0.69843621  0.33836409  0.28971798    -0.02600
Br3621     Br  0.67032635  0.35072677  0.28988428    -0.01150
Br3622     Br  0.70348039  0.35211077  0.33263067    -0.01220
Br3623     Br  0.73546619  0.30718517  0.24717518    -0.01180
Br3624     Br  0.78008813  0.32724079  0.28554851    -0.01160
C3625       C  0.91434054  0.01623421  0.13802294    -0.02290
C3626       C  0.88400076  0.50275659  0.13970778     0.07390
C3627       C  0.86708393  0.48900542  0.12243076    -0.02400
C3628       C  0.87970488  0.48434542  0.10513137    -0.02400
C3629       C  0.90989273  0.49594026  0.10405778     0.07530
C3630       C  0.92710379  0.01531111  0.11951722    -0.02600
Br3631     Br  0.96719266  0.04362619  0.11507574    -0.01150
Br3632     Br  0.93899770  0.03399628  0.16121530    -0.01220
Br3633     Br  0.85547929  0.46469668  0.08214909    -0.01180
Br3634     Br  0.82687779  0.47817671  0.12174468    -0.01160
C3635       C  0.75080761  0.42828804  0.18179852    -0.02290
C3636       C  0.74741192  0.40404784  0.19259775     0.07390
C3637       C  0.77149596  0.40499293  0.20194041    -0.02400
C3638       C  0.79916803  0.42924909  0.19936114    -0.02400
C3639       C  0.80262103  0.45315505  0.18817365     0.07530
C3640       C  0.77828745  0.45288006  0.17980299    -0.02600
Br3641     Br  0.78273307  0.48609987  0.16515103    -0.01150
Br3642     Br  0.71800587  0.42774120  0.16926499    -0.01220
Br3643     Br  0.83241046  0.42975465  0.21089713    -0.01180
Br3644     Br  0.76638493  0.37344726  0.21877721    -0.01160
C3645       C  0.84925820  0.10915383  0.24601577    -0.02290
C3646       C  0.85749834  0.08798168  0.24566001     0.07390
C3647       C  0.85325972  0.07093117  0.26304115    -0.02400
C3648       C  0.84036204  0.07475349  0.28053485    -0.02400
C3649       C  0.83415795  0.09747879  0.28142434     0.07530
C3650       C  0.83890555  0.11477990  0.26407322    -0.02600
Br3651     Br  0.83150498  0.14642987  0.26477152    -0.01150
Br3652     Br  0.85183446  0.13019202  0.22157533    -0.01220
Br3653     Br  0.83327675  0.05007892  0.30370354    -0.01180
Br3654     Br  0.86747099  0.04412272  0.26357912    -0.01160
C3655       C  0.96777883  0.13983087  0.21997310    -0.02290
C3656       C  0.94711465  0.13007054  0.20438195     0.07390
C3657       C  0.95430358  0.14456167  0.18554331    -0.02400
C3658       C  0.98179365  0.16899609  0.18252067    -0.02400
C3659       C  0.00176889  0.18010360  0.19864010     0.07530
C3660       C  0.99462630  0.16499086  0.21726986    -0.02600
Br3661     Br  0.52181401  0.17768984  0.23913117    -0.01150
Br3662     Br  0.95963134  0.11815030  0.24496938    -0.01220
Br3663     Br  0.99135739  0.18750525  0.15641232    -0.01180
Br3664     Br  0.92589697  0.13212049  0.16423151    -0.01160
C3665       C  0.91725218  0.12797600  0.33539288    -0.02290
C3666       C  0.91046902  0.13440203  0.35479258     0.07390
C3667       C  0.92942612  0.13944228  0.37110047    -0.02400
C3668       C  0.95535500  0.13926431  0.36777239    -0.02400
C3669       C  0.96142740  0.13184362  0.34845430     0.07530
C3670       C  0.94141289  0.12471817  0.33265678    -0.02600
Br3671     Br  0.94658031  0.10953127  0.30725978    -0.01150
Br3672     Br  0.89450687  0.12425514  0.31192695    -0.01220
Br3673     Br  0.98325458  0.15149298  0.38943306    -0.01180
Br3674     Br  0.92136456  0.14928103  0.39762579    -0.01160
C3675       C  0.56649890  0.17511413  0.29384219    -0.02290
C3676       C  0.55217572  0.18277094  0.30853836     0.07390
C3677       C  0.54943448  0.20728739  0.30516643    -0.02400
C3678       C  0.55664161  0.22104205  0.28627018    -0.02400
C3679       C  0.57412129  0.21596859  0.27254133     0.07530
C3680       C  0.57885811  0.19257956  0.27651186    -0.02600
Br3681     Br  0.59830234  0.18115815  0.25692308    -0.01150
Br3682     Br  0.56720875  0.13944288  0.29622005    -0.01220
Br3683     Br  0.53706397  0.24186989  0.27886051    -0.01180
Br3684     Br  0.53651905  0.22301158  0.32659295    -0.01160
C3685       C  0.52979987  0.07162496  0.45461449    -0.02290
C3686       C  0.50427122  0.04491265  0.45211676     0.07390
C3687       C  0.49054049  0.03735319  0.43312371    -0.02400
C3688       C  0.50362364  0.05532000  0.41624317    -0.02400
C3689       C  0.52973088  0.08175726  0.41859856     0.07530
C3690       C  0.54213274  0.09031490  0.43799624    -0.02600
Br3691     Br  0.57589608  0.12777501  0.44182184    -0.01150
Br3692     Br  0.54787446  0.08275994  0.48085202    -0.01220
Br3693     Br  0.48680242  0.04218127  0.38971643    -0.01180
Br3694     Br  0.95450374  0.50165347  0.43004823    -0.01160
C3695       C  0.61627323  0.08885558  0.37701417    -0.02290
C3696       C  0.61218859  0.11190362  0.37124869     0.07390
C3697       C  0.63597056  0.13740975  0.36352466    -0.02400
C3698       C  0.66284248  0.13891919  0.36060752    -0.02400
C3699       C  0.66721733  0.11633281  0.36774963     0.07530
C3700       C  0.64409372  0.09285743  0.37813775    -0.02600
Br3701     Br  0.64949508  0.06910349  0.39784317    -0.01150
Br3702     Br  0.58382883  0.05093220  0.38275350    -0.01220
Br3703     Br  0.69433338  0.17423242  0.34964788    -0.01180
Br3704     Br  0.63300077  0.17147138  0.35855018    -0.01160
C3705       C  0.78233324  0.41471058  0.03030816    -0.02290
C3706       C  0.77903511  0.43918832  0.03180025     0.07390
C3707       C  0.80364689  0.46704265  0.03075048    -0.02400
C3708       C  0.83128633  0.47026045  0.02876288    -0.02400
C3709       C  0.83472081  0.44574532  0.02884314     0.07530
C3710       C  0.81002010  0.41797058  0.02929800    -0.02600
Br3711     Br  0.81360975  0.38402322  0.02800802    -0.01150
Br3712     Br  0.74876005  0.37651358  0.02937171    -0.01220
Br3713     Br  0.86447299  0.00855926  0.02723676    -0.01180
Br3714     Br  0.80011282  0.00109777  0.03376008    -0.01160
C3715       C  0.71518769  0.41052282  0.09852407    -0.02290
C3716       C  0.69832452  0.40613772  0.08109879     0.07390
C3717       C  0.66914662  0.38387484  0.08114284    -0.02400
C3718       C  0.65708499  0.36670918  0.09860748    -0.02400
C3719       C  0.67458194  0.37008553  0.11556838     0.07530
C3720       C  0.70430784  0.39084272  0.11466283    -0.02600
Br3721     Br  0.73169477  0.39080089  0.13359974    -0.01150
Br3722     Br  0.75297384  0.44435962  0.10083735    -0.00200
Br3723     Br  0.61757251  0.33579683  0.09795797    -0.01180
Br3724     Br  0.64596222  0.37508123  0.05692618    -0.01160
C3725       C  0.70174371  0.51157241  0.95720529    -0.02290
C3726       C  0.71884523  0.01500447  0.97436379     0.07390
C3727       C  0.74804306  0.03714214  0.97435648    -0.02400
C3728       C  0.76010169  0.05435250  0.95688719    -0.02400
C3729       C  0.74264763  0.05115840  0.93998308     0.07530
C3730       C  0.71260790  0.03184048  0.94151060    -0.02600
Br3731     Br  0.68475882  0.53529042  0.92485167    -0.01150
Br3732     Br  0.66358691  0.47838559  0.95430492    -0.01220
Br3733     Br  0.79899001  0.08595125  0.95774906    -0.01180
Br3734     Br  0.77106126  0.04575623  0.99861313    -0.01160
C3735       C  0.60554411  0.49210225  0.03420039    -0.02290
C3736       C  0.58118132  0.47086752  0.02382234     0.07390
C3737       C  0.58403676  0.45189989  0.01044684    -0.02400
C3738       C  0.61027292  0.45208360  0.00904468    -0.02400
C3739       C  0.63448030  0.47291161  0.01975840     0.07530
C3740       C  0.63216300  0.49307166  0.03220835    -0.02600
Br3741     Br  0.66581724  0.02257319  0.04592579    -0.01150
Br3742     Br  0.60340273  0.02194607  0.04905757    -0.01220
Br3743     Br  0.61332416  0.42447259  0.99185893    -0.01180
Br3744     Br  0.55337870  0.42863122  0.99194338    -0.01160
C3745       C  0.68722800  0.28876583  0.60064187    -0.02290
C3746       C  0.67172673  0.26724689  0.61546846     0.07390
C3747       C  0.66839864  0.23940377  0.61266539    -0.02400
C3748       C  0.68140232  0.23393577  0.59586774    -0.02400
C3749       C  0.69436501  0.25476824  0.58029422     0.07530
C3750       C  0.69496234  0.28130516  0.58222958    -0.02600
Br3751     Br  0.70567384  0.30753962  0.55945355    -0.01150
Br3752     Br  0.70242680  0.32946275  0.60571896    -0.01220
Br3753     Br  0.68381169  0.19903819  0.59560233    -0.01180
Br3754     Br  0.64975186  0.20958303  0.63304931    -0.01160
C3755       C  0.80480235  0.31087842  0.55831985    -0.02290
C3756       C  0.78669163  0.29534721  0.54204171     0.07390
C3757       C  0.79423357  0.30676484  0.52215343    -0.02400
C3758       C  0.81998909  0.33306354  0.51868601    -0.02400
C3759       C  0.83715113  0.34942813  0.53524370     0.07530
C3760       C  0.82805273  0.33880378  0.55525161    -0.02600
Br3761     Br  0.84438483  0.36242226  0.57916569    -0.01150
Br3762     Br  0.79814773  0.29367296  0.58506159    -0.01220
Br3763     Br  0.82957053  0.34810571  0.49135699    -0.01180
Br3764     Br  0.76841804  0.28799758  0.49967678    -0.01160
C3765       C  0.61524844  0.12390734  0.52811524    -0.02290
C3766       C  0.63913945  0.12059910  0.52306045     0.07390
C3767       C  0.63472755  0.09264624  0.51969245    -0.02400
C3768       C  0.60668023  0.06892243  0.51865507    -0.02400
C3769       C  0.58293070  0.07164601  0.52528495     0.07530
C3770       C  0.58758032  0.09942766  0.53027559    -0.02600
Br3771     Br  0.55565190  0.10496747  0.53751889    -0.01150
Br3772     Br  0.61932930  0.16184892  0.53024894    -0.01220
Br3773     Br  0.60194578  0.03427941  0.50581463    -0.01180
Br3774     Br  0.66720303  0.08638943  0.51710166    -0.01160
C3775       C  0.74845606  0.17334953  0.47540155    -0.02290
C3776       C  0.72093860  0.17086186  0.47468838     0.07390
C3777       C  0.70619129  0.16491737  0.45605845    -0.02400
C3778       C  0.71753842  0.15878109  0.43873954    -0.02400
C3779       C  0.74448885  0.16017000  0.43959661     0.07530
C3780       C  0.76061747  0.16905390  0.45769742    -0.02600
Br3781     Br  0.79912765  0.17473509  0.45849463    -0.01150
Br3782     Br  0.76880430  0.18045861  0.50081820    -0.01220
Br3783     Br  0.69638712  0.14943157  0.41369471    -0.01180
Br3784     Br  0.67070655  0.16590229  0.45411802    -0.01160
C3785       C  0.82783941  0.22815925  0.77813624    -0.02290
C3786       C  0.83116875  0.20373917  0.78163809     0.07390
C3787       C  0.84238270  0.19455631  0.76562161    -0.02400
C3788       C  0.85106425  0.21017256  0.74743198    -0.02400
C3789       C  0.85487940  0.23806501  0.74654112     0.07530
C3790       C  0.84221839  0.24674750  0.76165635    -0.02600
Br3791     Br  0.84441771  0.28378225  0.75984943    -0.01150
Br3792     Br  0.80143414  0.23507846  0.79374547    -0.01220
Br3793     Br  0.85283089  0.19158541  0.72275924    -0.01180
Br3794     Br  0.84508725  0.16016755  0.76736086    -0.01160
C3795       C  0.96498387  0.29777554  0.69174839    -0.02290
C3796       C  0.94406837  0.27655345  0.70488909     0.07390
C3797       C  0.95227104  0.25861476  0.71536642    -0.02400
C3798       C  0.98119053  0.26553621  0.71580040    -0.02400
C3799       C  0.00042432  0.28306008  0.70024737     0.07530
C3800       C  0.99059819  0.29744972  0.68711318    -0.02600
Br3801     Br  0.50961348  0.31518337  0.66180540    -0.01150
Br3802     Br  0.96193109  0.33022948  0.68201371    -0.01220
Br3803     Br  0.99277705  0.25175577  0.73920470    -0.01180
Br3804     Br  0.92487640  0.22174050  0.72680430    -0.01160
C3805       C  0.77196202  0.32603907  0.69812756    -0.02290
C3806       C  0.74748073  0.30765046  0.68652845     0.07390
C3807       C  0.75041910  0.29199480  0.67033480    -0.02400
C3808       C  0.77632558  0.29185209  0.66734154    -0.02400
C3809       C  0.80032780  0.30907684  0.67958703     0.07530
C3810       C  0.79829444  0.32660911  0.69476703    -0.02600
Br3811     Br  0.83197443  0.35227615  0.71026837    -0.01150
Br3812     Br  0.77046438  0.35325463  0.71648684    -0.01220
Br3813     Br  0.77909414  0.26817417  0.64628313    -0.01180
Br3814     Br  0.72025459  0.27324930  0.65074288    -0.01160
C3815       C  0.91135484  0.37428881  0.64080966    -0.02290
C3816       C  0.88901909  0.34567407  0.63776700     0.07390
C3817       C  0.88309624  0.33397348  0.61805041    -0.02400
C3818       C  0.89686609  0.35189205  0.60127263    -0.02400
C3819       C  0.91610105  0.38151603  0.60424236     0.07530
C3820       C  0.92577228  0.39180600  0.62397059    -0.02600
Br3821     Br  0.96088419  0.42801071  0.62766117    -0.01150
Br3822     Br  0.92182339  0.38948557  0.66791463    -0.01220
Br3823     Br  0.89158567  0.33561430  0.57446599    -0.01180
Br3824     Br  0.85644965  0.29342030  0.61420506    -0.01160
C3825       C  0.64801964  0.46698987  0.88524416    -0.02290
C3826       C  0.62239367  0.46176140  0.87574099     0.07390
C3827       C  0.62297683  0.48158876  0.86141737    -0.02400
C3828       C  0.64898007  0.00696692  0.85703795    -0.02400
C3829       C  0.67439424  0.01292298  0.86720978     0.07530
C3830       C  0.67395002  0.49276659  0.88125299    -0.02600
Br3831     Br  0.70861935  0.50068558  0.89546944    -0.01150
Br3832     Br  0.64737594  0.43869119  0.90361669    -0.01220
Br3833     Br  0.64958188  0.03413553  0.83767459    -0.01180
Br3834     Br  0.58789297  0.47430490  0.84816446    -0.01160
C3835       C  0.52030061  0.39903879  0.93208992    -0.02290
C3836       C  0.53224695  0.41982007  0.91646155     0.07390
C3837       C  0.52837161  0.44401566  0.91686550    -0.02400
C3838       C  0.51505619  0.44882189  0.93363860    -0.02400
C3839       C  0.50419865  0.42870721  0.94976336     0.07530
C3840       C  0.50547890  0.40298171  0.94835795    -0.02600
Br3841     Br  0.48818236  0.37342741  0.96899352    -0.01150
Br3842     Br  0.52590481  0.36605605  0.93207709    -0.01220
Br3843     Br  0.01094696  0.48271927  0.93390804    -0.01180
Br3844     Br  0.54043875  0.47024945  0.89408311    -0.01160
C3845       C  0.93807609  0.23925222  0.84719705    -0.02290
C3846       C  0.91511795  0.24055315  0.85705528     0.07390
C3847       C  0.91998130  0.26776567  0.86398890    -0.02400
C3848       C  0.94680854  0.29299586  0.86044236    -0.02400
C3849       C  0.97023465  0.29093312  0.85235507     0.07530
C3850       C  0.96585322  0.26341885  0.84711086    -0.02600
Br3851     Br  0.99796050  0.25763744  0.84102809    -0.01150
Br3852     Br  0.93272295  0.20585648  0.83190865    -0.01220
Br3853     Br  0.95021250  0.33027368  0.86516965    -0.01180
Br3854     Br  0.88946766  0.27163996  0.87659127    -0.01160
C3855       C  0.56923814  0.34630318  0.77185306    -0.02290
C3856       C  0.58020040  0.32732683  0.77385335     0.07390
C3857       C  0.58121652  0.31665903  0.79313967    -0.02400
C3858       C  0.56916314  0.32303556  0.80995234    -0.02400
C3859       C  0.55523934  0.33927277  0.80737766     0.07530
C3860       C  0.55612899  0.35173582  0.78847977    -0.02600
Br3861     Br  0.53944178  0.37618121  0.78552069    -0.01150
Br3862     Br  0.57275988  0.36540697  0.74653006    -0.01220
Br3863     Br  0.57274684  0.31057267  0.83669353    -0.01180
Br3864     Br  0.60079684  0.29504557  0.79679992    -0.01160
C3865       C  0.66314134  0.05838882  0.26879474    -0.02290
C3866       C  0.67520514  0.05456662  0.25081513     0.07390
C3867       C  0.70497560  0.06448681  0.25003178    -0.02400
C3868       C  0.72161409  0.07382751  0.26772594    -0.02400
C3869       C  0.70978766  0.07774814  0.28574856     0.07530
C3870       C  0.68073661  0.07113234  0.28597391    -0.02600
Br3871     Br  0.66469984  0.07844410  0.30994909    -0.01150
Br3872     Br  0.62259845  0.04576951  0.27002418    -0.01220
Br3873     Br  0.76065274  0.08114141  0.26693837    -0.01180
Br3874     Br  0.72379961  0.06862832  0.22430678    -0.01160
C3875       C  0.66190959  0.44093003  0.20366882    -0.02290
C3876       C  0.63585401  0.41681538  0.19699398     0.07390
C3877       C  0.61179367  0.42042496  0.19332016    -0.02400
C3878       C  0.61345783  0.44713087  0.19755369    -0.02400
C3879       C  0.64015550  0.47150205  0.20286879     0.07530
C3880       C  0.66466329  0.46836189  0.20427069    -0.02600
Br3881     Br  0.70275622  0.50159972  0.20537953    -0.01150
Br3882     Br  0.69374368  0.43747494  0.21412423    -0.01220
Br3883     Br  0.57842635  0.44914598  0.19771276    -0.01180
Br3884     Br  0.57537502  0.38826758  0.18472404    -0.01160
C3885       C  0.53388357  0.01667843  0.14449146    -0.02290
C3886       C  0.56347147  0.02555908  0.14499826     0.07390
C3887       C  0.57561826  0.01771304  0.12888565    -0.02400
C3888       C  0.55866240  0.00268872  0.11199442    -0.02400
C3889       C  0.53049586  0.99815478  0.11006496     0.07530
C3890       C  0.51754291  0.00324076  0.12702640    -0.02600
Br3891     Br  0.97653144  0.98816386  0.12733933    -0.01150
Br3892     Br  0.51535293  0.02164647  0.16800568    -0.01220
Br3893     Br  0.57347228  0.98656379  0.09255774    -0.01180
Br3894     Br  0.61595363  0.02900485  0.12917863    -0.01160
C3895       C  0.63709149  0.16921675  0.18508463    -0.02290
C3896       C  0.61317175  0.17106092  0.19215937     0.07390
C3897       C  0.58697733  0.14566563  0.19617908    -0.02400
C3898       C  0.58471698  0.11855789  0.19343200    -0.02400
C3899       C  0.60825034  0.11660647  0.18567435     0.07530
C3900       C  0.63457545  0.14203655  0.18171799    -0.02600
Br3901     Br  0.66673857  0.13969676  0.17064653    -0.01150
Br3902     Br  0.67243067  0.20376306  0.17794318    -0.01220
Br3903     Br  0.54957554  0.08415356  0.20102663    -0.01180
Br3904     Br  0.55389065  0.14799918  0.20500887    -0.01160
C3905       C  0.68214848  0.47849277  0.35259863    -0.02290
C3906       C  0.68023620  0.00343996  0.35707295     0.07390
C3907       C  0.65278108  0.50094611  0.35749363    -0.02400
C3908       C  0.62763664  0.47380599  0.35567701    -0.02400
C3909       C  0.62972263  0.44873984  0.35294132     0.07530
C3910       C  0.65713867  0.45118260  0.35198506    -0.02600
Br3911     Br  0.66063339  0.41694818  0.34991535    -0.01150
Br3912     Br  0.71768497  0.98107621  0.34362956    -0.01220
Br3913     Br  0.59052111  0.47164832  0.35517214    -0.01180
Br3914     Br  0.64967268  0.03503705  0.35531390    -0.01160
C3915       C  0.58948347  0.36794560  0.26830361    -0.02290
C3916       C  0.59231216  0.34326445  0.27050106     0.07390
C3917       C  0.58964466  0.33109309  0.28987688    -0.02400
C3918       C  0.58338000  0.34299347  0.30686025    -0.02400
C3919       C  0.58043647  0.36762060  0.30463658     0.07530
C3920       C  0.58330208  0.37994240  0.28528087    -0.02600
Br3921     Br  0.57902032  0.41347163  0.28210385    -0.01150
Br3922     Br  0.59550447  0.38627034  0.24223637    -0.01220
Br3923     Br  0.58087906  0.32668720  0.33342692    -0.01180
Br3924     Br  0.59802520  0.30035358  0.29362347    -0.01160
C3925       C  0.00107641  0.41677366  0.41383033    -0.02290
C3926       C  0.49870319  0.38931184  0.41523757     0.07390
C3927       C  0.49249727  0.37517513  0.43419052    -0.02400
C3928       C  0.48608756  0.38701950  0.45110722    -0.02400
C3929       C  0.98817165  0.41431808  0.44970048     0.07530
C3930       C  0.99677876  0.42964324  0.43119218    -0.02600
Br3931     Br  0.00124294  0.46766437  0.42923877    -0.01150
Br3932     Br  0.00827383  0.43608259  0.38794844    -0.01220
Br3933     Br  0.47458336  0.36558232  0.47622781    -0.01180
Br3934     Br  0.49383836  0.33995024  0.43723036    -0.01160
C3935       C  0.90006159  0.27657708  0.36213428    -0.02290
C3936       C  0.90114458  0.25080083  0.36261218     0.07390
C3937       C  0.92768633  0.25194238  0.36603488    -0.02400
C3938       C  0.95266183  0.27857579  0.36994227    -0.02400
C3939       C  0.95156604  0.30438923  0.36934252     0.07530
C3940       C  0.92533580  0.30332533  0.36479486    -0.02600
Br3941     Br  0.92401421  0.33858264  0.36180016    -0.01150
Br3942     Br  0.86391508  0.27542087  0.35816549    -0.01220
Br3943     Br  0.98768196  0.27924076  0.37780741    -0.01180
Br3944     Br  0.92941760  0.21676543  0.36733690    -0.01160
C3945       C  0.58837352  0.13705440  0.03451112    -0.02290
C3946       C  0.61629635  0.14140167  0.03128751     0.07390
C3947       C  0.61937966  0.11783906  0.02478079    -0.02400
C3948       C  0.59481025  0.09064058  0.02141733    -0.02400
C3949       C  0.56735986  0.08532531  0.02795479     0.07530
C3950       C  0.56447795  0.10897221  0.03463312    -0.02600
Br3951     Br  0.52834920  0.10402968  0.04443332    -0.01150
Br3952     Br  0.58247569  0.16969082  0.03804533    -0.01220
Br3953     Br  0.59980495  0.06115407  0.00817465    -0.01180
Br3954     Br  0.65693125  0.12114858  0.02249861    -0.01160
C3955       C  0.64795647  0.21561672  0.11604117    -0.02290
C3956       C  0.65379448  0.24447055  0.11625310     0.07390
C3957       C  0.66566542  0.26167778  0.09875967    -0.02400
C3958       C  0.67076414  0.24982783  0.08114007    -0.02400
C3959       C  0.66604231  0.22131480  0.08137362     0.07530
C3960       C  0.65613580  0.20496151  0.09934947    -0.02600
Br3961     Br  0.65455125  0.16811959  0.10145469    -0.01150
Br3962     Br  0.62651769  0.18929352  0.13759014    -0.01220
Br3963     Br  0.68191881  0.27213104  0.05635997    -0.01180
Br3964     Br  0.67189641  0.30047971  0.09804444    -0.01160
C3965       C  0.74001951  0.19808589  0.95730095    -0.02290
C3966       C  0.75166642  0.19652047  0.97609523     0.07390
C3967       C  0.76847271  0.18308937  0.97731502    -0.02400
C3968       C  0.77399605  0.17164270  0.95972669    -0.02400
C3969       C  0.76256208  0.17342579  0.94090500     0.07530
C3970       C  0.74547940  0.18658995  0.93975686    -0.02600
Br3971     Br  0.73214611  0.19175802  0.91382891    -0.01150
Br3972     Br  0.71816613  0.21776984  0.95530810    -0.01220
Br3973     Br  0.79761041  0.15391804  0.96131811    -0.01180
Br3974     Br  0.78411039  0.18073511  0.00308084    -0.01160
C3975       C  0.80679696  0.30524898  0.99947205    -0.02290
C3976       C  0.79246113  0.28696799  0.01598091     0.07390
C3977       C  0.80184273  0.29687995  0.03590585    -0.02400
C3978       C  0.82547248  0.32475131  0.03914065    -0.02400
C3979       C  0.84291569  0.34105241  0.02251469     0.07530
C3980       C  0.83276398  0.33113185  0.00254113    -0.02600
Br3981     Br  0.85275011  0.35278371  0.97869949    -0.01150
Br3982     Br  0.78996409  0.29562931  0.97258412    -0.01220
Br3983     Br  0.83164930  0.34024368  0.06632076    -0.01180
Br3984     Br  0.78385624  0.27184310  0.05897044    -0.01160
C3985       C  0.53374369  0.25564778  0.58262424    -0.02290
C3986       C  0.51140038  0.22647641  0.58251358     0.07390
C3987       C  0.50305242  0.21155806  0.60115137    -0.02400
C3988       C  0.52047795  0.22285172  0.61838042    -0.02400
C3989       C  0.54354201  0.25146206  0.61832963     0.07530
C3990       C  0.54780446  0.26869057  0.60098655    -0.02600
Br3991     Br  0.57041604  0.31011162  0.60254706    -0.01150
Br3992     Br  0.54620433  0.27775730  0.55784632    -0.01220
Br3993     Br  0.51092856  0.19953404  0.64247528    -0.01180
Br3994     Br  0.96541091  0.17847681  0.60435843    -0.01160
C3995       C  0.97833066  0.10550328  0.51450124    -0.02290
C3996       C  0.97407175  0.08744263  0.53141220     0.07390
C3997       C  0.97127757  0.09697601  0.55080885    -0.02400
C3998       C  0.96696196  0.12047139  0.55258514    -0.02400
C3999       C  0.97431610  0.14030996  0.53666019     0.07530
C4000       C  0.98048703  0.13283975  0.51739481    -0.02600
Br4001     Br  0.99266809  0.15993921  0.49522156    -0.01150
Br4002     Br  0.98395637  0.09427111  0.48783153    -0.01220
Br4003     Br  0.94532413  0.12149315  0.57536394    -0.01180
Br4004     Br  0.97637784  0.08106435  0.57568630    -0.01160
C4005       C  0.91146719  0.28498436  0.52220940    -0.02290
C4006       C  0.93605115  0.28182006  0.52286281     0.07390
C4007       C  0.96320172  0.30615114  0.52723613    -0.02400
C4008       C  0.96566396  0.33325883  0.53068758    -0.02400
C4009       C  0.94162882  0.33706142  0.52767586     0.07530
C4010       C  0.91436452  0.31257164  0.52374646    -0.02600
Br4011     Br  0.88042845  0.31610101  0.52078607    -0.01150
Br4012     Br  0.87355185  0.25135231  0.51971456    -0.01220
Br4013     Br  0.50269333  0.36506361  0.53871189    -0.01180
Br4014     Br  0.49797454  0.30358507  0.52654487    -0.01160
C4015       C  0.89558980  0.20926668  0.43715414    -0.02290
C4016       C  0.87609875  0.17914443  0.43638238     0.07390
C4017       C  0.87710968  0.16164534  0.45212945    -0.02400
C4018       C  0.89250210  0.17443633  0.47005971    -0.02400
C4019       C  0.91123894  0.20464683  0.47106837     0.07530
C4020       C  0.91429217  0.22153262  0.45378952    -0.02600
Br4021     Br  0.94508850  0.26126250  0.45236903    -0.01150
Br4022     Br  0.89824353  0.23422581  0.41519170    -0.01220
Br4023     Br  0.88510094  0.15017263  0.49364401    -0.01180
Br4024     Br  0.85873314  0.12018661  0.44955444    -0.01160
C4025       C  0.82054249  0.27442713  0.85400084    -0.02290
C4026       C  0.80875931  0.25345486  0.86942165     0.07390
C4027       C  0.80096951  0.26087922  0.88795587    -0.02400
C4028       C  0.79786192  0.28531526  0.88919992    -0.02400
C4029       C  0.80809900  0.30578236  0.87334422     0.07530
C4030       C  0.82033435  0.30062532  0.85592435    -0.02600
Br4031     Br  0.83884719  0.33012942  0.83548870    -0.01150
Br4032     Br  0.84342198  0.27032501  0.83317554    -0.01220
Br4033     Br  0.77914955  0.29023353  0.91278037    -0.01180
Br4034     Br  0.80167262  0.24256062  0.91286795    -0.01160
C4035       C  0.89425050  0.41416932  0.93264570    -0.02290
C4036       C  0.88182085  0.41727816  0.95066022     0.07390
C4037       C  0.85250440  0.40956771  0.95095794    -0.02400
C4038       C  0.83525918  0.39690424  0.93370514    -0.02400
C4039       C  0.84768818  0.39340863  0.91580648     0.07530
C4040       C  0.87743369  0.40306493  0.91512729    -0.02600
Br4041     Br  0.89522101  0.40109599  0.89007076    -0.01150
Br4042     Br  0.93444189  0.42519243  0.93181762    -0.01220
Br4043     Br  0.79430448  0.38234319  0.93511957    -0.01180
Br4044     Br  0.83542489  0.41428650  0.97541657    -0.01160
C4045       C  0.74459955  0.35011134  0.79386733    -0.02290
C4046       C  0.73799768  0.36551854  0.80826325     0.07390
C4047       C  0.71227305  0.36641241  0.80615128    -0.02400
C4048       C  0.69515866  0.35517119  0.78873730    -0.02400
C4049       C  0.70177354  0.33994844  0.77401880     0.07530
C4050       C  0.72585483  0.33615827  0.77741760    -0.02600
Br4051     Br  0.73446387  0.31275105  0.75960098    -0.01150
Br4052     Br  0.78044901  0.34979512  0.79568842    -0.01220
Br4053     Br  0.66266778  0.36123484  0.78578949    -0.01180
Br4054     Br  0.69943990  0.38207420  0.82754144    -0.01160
C4055       C  0.76402668  0.45616572  0.85602607    -0.02290
C4056       C  0.78777137  0.45644747  0.84664042     0.07390
C4057       C  0.80958131  0.48220274  0.83794648    -0.02400
C4058       C  0.80775113  0.00758634  0.83921131    -0.02400
C4059       C  0.78440281  0.00728630  0.84936335     0.07530
C4060       C  0.76109316  0.48067624  0.85529742    -0.02600
Br4061     Br  0.72300423  0.47520406  0.85492256    -0.01150
Br4062     Br  0.73541673  0.42237570  0.87017332    -0.01220
Br4063     Br  0.83316741  0.04060706  0.82322563    -0.01180
Br4064     Br  0.84149563  0.48245131  0.82422786    -0.01160
C4065       C  0.98939333  0.12132556  0.68291518    -0.02290
C4066       C  0.96215948  0.11924093  0.68438610     0.07390
C4067       C  0.96061383  0.14432172  0.68869875    -0.02400
C4068       C  0.98602574  0.17086891  0.69211731    -0.02400
C4069       C  0.51336769  0.17320536  0.68974234     0.07530
C4070       C  0.51460846  0.14843575  0.68353747    -0.02600
Br4071     Br  0.54934834  0.15095611  0.67271466    -0.01150
Br4072     Br  0.99253306  0.08691434  0.68060929    -0.01220
Br4073     Br  0.98302236  0.20490082  0.69638284    -0.01180
Br4074     Br  0.92403367  0.14332585  0.68802691    -0.01160
C4075       C  0.91913187  0.01433159  0.64051885    -0.02290
C4076       C  0.91255824  0.03640164  0.63725201     0.07390
C4077       C  0.90871814  0.04335236  0.61739771    -0.02400
C4078       C  0.91359311  0.02971869  0.60080041    -0.02400
C4079       C  0.92356877  0.01016921  0.60402696     0.07530
C4080       C  0.92324676  0.50053024  0.62386801    -0.02600
Br4081     Br  0.92738087  0.46740894  0.62819199    -0.01150
Br4082     Br  0.91964108  0.50170057  0.66775076    -0.01220
Br4083     Br  0.90343233  0.03516446  0.57398056    -0.01180
Br4084     Br  0.89629729  0.07109771  0.61322384    -0.01160
C4085       C  0.77141236  0.46647683  0.68494950    -0.02290
C4086       C  0.78621602  0.47399940  0.70364137     0.07390
C4087       C  0.77705593  0.45356278  0.71943070    -0.02400
C4088       C  0.75241404  0.42629141  0.71694081    -0.02400
C4089       C  0.73703681  0.41893237  0.69845104     0.07530
C4090       C  0.74722751  0.43881759  0.68222899    -0.02600
Br4091     Br  0.72757552  0.42883838  0.65647272    -0.01150
Br4092     Br  0.78311046  0.49460871  0.66341022    -0.01220
Br4093     Br  0.74071773  0.39876765  0.73881873    -0.01180
Br4094     Br  0.79877406  0.46264139  0.74439237    -0.01160
C4095       C  0.84996294  0.07406883  0.75836881    -0.02290
C4096       C  0.82976092  0.06601974  0.74245669     0.07390
C4097       C  0.80723794  0.07228601  0.74401505    -0.02400
C4098       C  0.80311286  0.08361911  0.76216940    -0.02400
C4099       C  0.82202122  0.08962820  0.77870128     0.07530
C4100       C  0.84691039  0.08721814  0.77599262    -0.02600
Br4101     Br  0.87739605  0.10231212  0.79591996    -0.01150
Br4102     Br  0.88059734  0.06499038  0.75700163    -0.01220
Br4103     Br  0.77322289  0.09359861  0.76350795    -0.01180
Br4104     Br  0.78243507  0.06597525  0.72105520    -0.01160
C4105       C  0.83097873  0.54927071  0.72495838     0.02690
C4106       C  0.85526657  0.56048987  0.71228821    -0.13460
C4107       C  0.85871568  0.54282310  0.69791617     0.00190
C4108       C  0.83616815  0.51399717  0.69581313    -0.11980
C4109       C  0.81059875  0.50359199  0.70699919     0.02680
C4110       C  0.80833998  0.52115999  0.72176144    -0.11410
H4111       H  0.87150539  0.58291036  0.71416048     0.08280
H4112       H  0.83805163  0.49918832  0.68562147     0.05810
H4113       H  0.78913254  0.51267128  0.73111725     0.05650
C4114       C  0.91035521  0.55271720  0.65456447     0.02690
C4115       C  0.88547968  0.54147294  0.66652862    -0.13460
C4116       C  0.88551173  0.55446419  0.68520227     0.00190
C4117       C  0.91151270  0.57882499  0.69153213    -0.11980
C4118       C  0.93564459  0.59177743  0.67864130     0.02680
C4119       C  0.93464118  0.57864317  0.66001608    -0.11410
H4120       H  0.86684888  0.02232791  0.66114095     0.08280
H4121       H  0.91327793  0.58821252  0.70636379     0.05810
H4122       H  0.95320713  0.58805727  0.65000122     0.05650
C4123       C  0.75879222  0.88265800  0.82460571     0.02690
C4124       C  0.76842416  0.91217165  0.82607224    -0.13460
C4125       C  0.78573245  0.92840587  0.84221082     0.00190
C4126       C  0.79660551  0.91605850  0.85567858    -0.11980
C4127       C  0.78825861  0.88642331  0.85431181     0.02680
C4128       C  0.76803499  0.86975984  0.83908605    -0.11410
H4129       H  0.76073441  0.92217985  0.81538972     0.08280
H4130       H  0.81107411  0.93002341  0.86721688     0.05810
H4131       H  0.75893469  0.84667570  0.83829368     0.05650
C4132       C  0.82946443  0.87696562  0.89840467     0.02690
C4133       C  0.82703253  0.85049110  0.89364801    -0.13460
C4134       C  0.81089428  0.83448833  0.87701202     0.00190
C4135       C  0.79810426  0.84598343  0.86431768    -0.11980
C4136       C  0.80048139  0.87313607  0.86856031     0.02680
C4137       C  0.81577361  0.88792290  0.88625029    -0.11410
H4138       H  0.83780660  0.84219414  0.90308638     0.08280
H4139       H  0.78694367  0.83361981  0.85107379     0.05810
H4140       H  0.81764542  0.90810569  0.89090711     0.05650
C4141       C  0.92563568  0.71881149  0.49052511     0.02690
C4142       C  0.94120529  0.70904236  0.50193463    -0.13460
C4143       C  0.95002453  0.71878796  0.52200850     0.00190
C4144       C  0.94508833  0.74070806  0.52952880    -0.11980
C4145       C  0.93401581  0.75396280  0.51700038     0.02680
C4146       C  0.92295016  0.74187896  0.49801195    -0.11410
H4147       H  0.94577901  0.69343447  0.49503303     0.08280
H4148       H  0.95067241  0.74867973  0.54484976     0.05810
H4149       H  0.91250779  0.75078557  0.48888204     0.05650
C4150       C  0.99610834  0.71149383  0.56344241     0.02690
C4151       C  0.98179623  0.72219720  0.55166793    -0.13460
C4152       C  0.96492287  0.70679322  0.53472002     0.00190
C4153       C  0.96229217  0.67970986  0.53015795    -0.11980
C4154       C  0.97757716  0.66926163  0.54114059     0.02680
C4155       C  0.99459739  0.68549336  0.55767287    -0.11410
H4156       H  0.98409197  0.74264811  0.55607934     0.08280
H4157       H  0.94786119  0.66610380  0.51840772     0.05810
H4158       H  0.00602466  0.67736258  0.56653258     0.05650
C4159       C  0.74897865  0.71208532  0.99376288     0.02690
C4160       C  0.72282970  0.70146405  0.00422788    -0.13460
C4161       C  0.71875256  0.71895321  0.01840740     0.00190
C4162       C  0.74122043  0.74757191  0.02115738    -0.11980
C4163       C  0.76824656  0.75735903  0.01212799     0.02680
C4164       C  0.77204735  0.73920912  0.99868679    -0.11410
H4165       H  0.70598331  0.67964600  0.00107431     0.08280
H4166       H  0.73803275  0.76241012  0.03048003     0.05810
H4167       H  0.79261695  0.74682591  0.99115847     0.05650
C4168       C  0.66728807  0.70710887  0.06224435     0.02690
C4169       C  0.69222276  0.71864403  0.05025595    -0.13460
C4170       C  0.69180460  0.70726115  0.03081008     0.00190
C4171       C  0.66579830  0.68366575  0.02388658    -0.11980
C4172       C  0.64191040  0.66959018  0.03684352     0.02680
C4173       C  0.64277921  0.68185742  0.05581803    -0.11410
H4174       H  0.71176555  0.73644578  0.05633564     0.08280
H4175       H  0.66415033  0.67541655  0.00866770     0.05810
H4176       H  0.62413191  0.67171039  0.06570848     0.05650
C4177       C  0.50035630  0.87408182  0.39680926     0.02690
C4178       C  0.52542711  0.88538410  0.38487016    -0.13460
C4179       C  0.52713893  0.87040207  0.36759673     0.00190
C4180       C  0.50251960  0.84355826  0.36288492    -0.11980
C4181       C  0.97733077  0.83236230  0.37460101     0.02680
C4182       C  0.97644845  0.84769974  0.39147104    -0.11410
H4183       H  0.54307276  0.90606854  0.38932599     0.08280
H4184       H  0.50221969  0.83059036  0.35028006     0.05810
H4185       H  0.95700693  0.83893575  0.40060251     0.05650
C4186       C  0.57862950  0.88272928  0.32295119     0.02690
C4187       C  0.60280421  0.90847510  0.32871793    -0.13460
C4188       C  0.60375753  0.92095826  0.34753611     0.00190
C4189       C  0.57992225  0.90748628  0.36061434    -0.11980
C4190       C  0.55392135  0.88287526  0.35441355     0.02680
C4191       C  0.55397035  0.87067678  0.33526874    -0.11410
H4192       H  0.62133876  0.91845299  0.31868223     0.08280
H4193       H  0.58224121  0.91698637  0.37541017     0.05810
H4194       H  0.53537197  0.85171714  0.32947244     0.05650
C4195       C  0.58171692  0.54294128  0.16227827     0.02690
C4196       C  0.58669684  0.57091570  0.16560235    -0.13460
C4197       C  0.60489824  0.58788606  0.18128897     0.00190
C4198       C  0.61950477  0.57737846  0.19297450    -0.11980
C4199       C  0.61488148  0.54919977  0.19002893     0.02680
C4200       C  0.59478733  0.53187052  0.17501553    -0.11410
H4201       H  0.57627377  0.57945283  0.15605517     0.08280
H4202       H  0.63443889  0.59168689  0.20420040     0.05810
H4203       H  0.58901163  0.00961569  0.17281931     0.05650
C4204       C  0.65708606  0.53881555  0.23304554     0.02690
C4205       C  0.65470747  0.51248350  0.22733650    -0.13460
C4206       C  0.64218637  0.99945444  0.20877096     0.00190
C4207       C  0.63162465  0.51305477  0.19608410    -0.11980
C4208       C  0.63034874  0.53761940  0.20257969     0.02680
C4209       C  0.64393499  0.55065741  0.22113276    -0.11410
H4210       H  0.66348898  0.50257269  0.23716335     0.08280
H4211       H  0.62420988  0.50391369  0.18120274     0.05810
H4212       H  0.64471249  0.57002708  0.22663326     0.05650
C4213       C  0.53903707  0.84209114  0.82450329     0.02690
C4214       C  0.55250668  0.86508014  0.83806594    -0.13460
C4215       C  0.53971184  0.86442218  0.85697843     0.00190
C4216       C  0.51349215  0.83916553  0.86200376    -0.11980
C4217       C  0.99851288  0.81723419  0.84758632     0.02680
C4218       C  0.51122777  0.81967812  0.82851817    -0.11410
H4219       H  0.57304585  0.88294425  0.83351887     0.08280
H4220       H  0.00453590  0.83618591  0.87710062     0.05810
H4221       H  0.00032196  0.80299243  0.81719293     0.05650
C4222       C  0.54957144  0.91682042  0.90001361     0.02690
C4223       C  0.53703753  0.89328050  0.88663369    -0.13460
C4224       C  0.55347031  0.88972694  0.87127251     0.00190
C4225       C  0.58259691  0.91162212  0.86901713    -0.11980
C4226       C  0.59449048  0.93629858  0.88125342     0.02680
C4227       C  0.57838601  0.93825299  0.89723925    -0.11410
H4228       H  0.01425213  0.87822470  0.88823861     0.08280
H4229       H  0.59638084  0.91048428  0.85754107     0.05810
H4230       H  0.58789784  0.95713007  0.90696046     0.05650
C4231       C  0.87137374  0.82806476  0.65502886     0.02690
C4232       C  0.88015369  0.81198455  0.66673335    -0.13460
C4233       C  0.86292718  0.79425482  0.68289885     0.00190
C4234       C  0.83654906  0.79367075  0.68681648    -0.11980
C4235       C  0.82807638  0.81022859  0.67537334     0.02680
C4236       C  0.84546935  0.82723040  0.65943966    -0.11410
H4237       H  0.90077716  0.81417801  0.66309339     0.08280
H4238       H  0.82209803  0.78078797  0.69875468     0.05810
H4239       H  0.83873664  0.83969366  0.65036927     0.05650
C4240       C  0.87188775  0.75713324  0.72951155     0.02690
C4241       C  0.85880608  0.76515627  0.71462049    -0.13460
C4242       C  0.87374287  0.77905426  0.69668671     0.00190
C4243       C  0.89997520  0.77933552  0.69277953    -0.11980
C4244       C  0.91466032  0.77356607  0.70824103     0.02680
C4245       C  0.90071759  0.76444650  0.72712986    -0.11410
H4246       H  0.83691216  0.75989793  0.71737655     0.08280
H4247       H  0.90904782  0.78384356  0.67774221     0.05810
H4248       H  0.91148682  0.76121469  0.73983977     0.05650
C4249       C  0.70640646  0.67167233  0.49366067     0.02690
C4250       C  0.71826483  0.69612839  0.50610133    -0.13460
C4251       C  0.70615077  0.69544618  0.52527485     0.00190
C4252       C  0.68162796  0.66958146  0.53155040    -0.11980
C4253       C  0.66771876  0.64613111  0.51819541     0.02680
C4254       C  0.68053648  0.64737589  0.49938058    -0.11410
H4255       H  0.73682161  0.71553432  0.50052667     0.08280
H4256       H  0.67263161  0.66775736  0.54655477     0.05810
H4257       H  0.67036070  0.62921637  0.48906043     0.05650
C4258       C  0.71153557  0.75120892  0.56385515     0.02690
C4259       C  0.70032247  0.72640023  0.55171620    -0.13460
C4260       C  0.71822728  0.72193772  0.53817498     0.00190
C4261       C  0.74739411  0.74370295  0.53634990    -0.11980
C4262       C  0.75778314  0.77007243  0.54648235     0.02680
C4263       C  0.73998545  0.77312347  0.56063815    -0.11410
H4264       H  0.67762699  0.71076568  0.55298136     0.08280
H4265       H  0.76205851  0.74077102  0.52666569     0.05810
H4266       H  0.74840895  0.79296623  0.56923703     0.05650
C4267       C  0.70477095  0.99766579  0.99286583     0.02690
C4268       C  0.71534040  0.98166506  0.00279686    -0.13460
C4269       C  0.70044168  0.96360942  0.01951965     0.00190
C4270       C  0.67321496  0.96021105  0.02461749    -0.11980
C4271       C  0.66311568  0.97675825  0.01508873     0.02680
C4272       C  0.67955944  0.99632092  0.00002196    -0.11410
H4273       H  0.73522108  0.98383109  0.99721708     0.08280
H4274       H  0.65932022  0.94467045  0.03575967     0.05810
H4275       H  0.67165521  0.00928880  0.99291711     0.05650
C4276       C  0.71248217  0.92196352  0.06208998     0.02690
C4277       C  0.70172200  0.93683500  0.05099683    -0.13460
C4278       C  0.71308770  0.94874881  0.03167931     0.00190
C4279       C  0.73744026  0.94738683  0.02476801    -0.11980
C4280       C  0.75044270  0.93568546  0.03696760     0.02680
C4281       C  0.73706867  0.92188776  0.05504513    -0.11410
H4282       H  0.68444609  0.93877817  0.05781038     0.08280
H4283       H  0.74729705  0.95591190  0.01024467     0.05810
H4284       H  0.74628461  0.91149749  0.06394402     0.05650
C4285       C  0.54557453  0.59854658  0.40045297     0.02690
C4286       C  0.57205141  0.60102429  0.39548886    -0.13460
C4287       C  0.58433346  0.61051114  0.37620379     0.00190
C4288       C  0.56984913  0.61829303  0.36206539    -0.11980
C4289       C  0.54507677  0.61952750  0.36775397     0.02680
C4290       C  0.53327909  0.60967611  0.38721999    -0.11410
H4291       H  0.58254578  0.59435553  0.40648825     0.08280
H4292       H  0.57819711  0.62367364  0.34675740     0.05810
H4293       H  0.01417352  0.60989175  0.39224549     0.05650
C4294       C  0.53580469  0.66291384  0.32555300     0.02690
C4295       C  0.54847497  0.65215651  0.33894689    -0.13460
C4296       C  0.53165422  0.63112323  0.35359477     0.00190
C4297       C  0.50216074  0.62238367  0.35528610    -0.11980
C4298       C  0.99031964  0.63578957  0.34379770     0.02680
C4299       C  0.50680722  0.65476858  0.32833264    -0.11410
H4300       H  0.57141745  0.66036565  0.33785838     0.08280
H4301       H  0.98829571  0.60586733  0.36594247     0.05810
H4302       H  0.99707121  0.66382410  0.31861697     0.05650
C4303       C  0.87320610  0.58569210  0.22786773     0.02690
C4304       C  0.86139414  0.56061728  0.21595807    -0.13460
C4305       C  0.87788036  0.55701745  0.20063859     0.00190
C4306       C  0.90644007  0.57978038  0.19745036    -0.11980
C4307       C  0.91754948  0.60574908  0.20830738     0.02680
C4308       C  0.90081722  0.60844968  0.22352303    -0.11410
H4309       H  0.83942250  0.54417550  0.21903623     0.08280
H4310       H  0.92056410  0.57761293  0.18675073     0.05810
H4311       H  0.90964049  0.62811082  0.23241682     0.05650
C4312       C  0.86983670  0.50316017  0.15918944     0.02690
C4313       C  0.87827305  0.52914621  0.16957313    -0.13460
C4314       C  0.86597543  0.52955187  0.18849526     0.00190
C4315       C  0.84209345  0.50351875  0.19538165    -0.11980
C4316       C  0.83162262  0.97806216  0.18403851     0.02680
C4317       C  0.84675322  0.97754688  0.16688792    -0.11410
H4318       H  0.89438669  0.54900588  0.16260786     0.08280
H4319       H  0.83090854  0.50256680  0.20926231     0.05810
H4320       H  0.83930000  0.95741326  0.15878021     0.05650
C4321       C  0.75388767  0.83761082  0.32578793     0.02690
C4322       C  0.76928999  0.86356251  0.33667575    -0.13460
C4323       C  0.78627426  0.86579106  0.35385027     0.00190
C4324       C  0.78794267  0.84097494  0.35912771    -0.11980
C4325       C  0.77228948  0.81491982  0.34858090     0.02680
C4326       C  0.75501745  0.81326047  0.33219573    -0.11410
H4327       H  0.76773793  0.88165975  0.33119573     0.08280
H4328       H  0.80190548  0.84135562  0.37098538     0.05810
H4329       H  0.74328079  0.79316810  0.32388111     0.05650
C4330       C  0.83227962  0.92062283  0.39523929     0.02690
C4331       C  0.81659619  0.89474759  0.38437172    -0.13460
C4332       C  0.80252802  0.89365945  0.36586918     0.00190
C4333       C  0.80349386  0.91947552  0.35952923    -0.11980
C4334       C  0.81787830  0.94491174  0.37098949     0.02680
C4335       C  0.83305993  0.94560143  0.38828474    -0.11410
H4336       H  0.81540748  0.87579346  0.39098885     0.08280
H4337       H  0.79259135  0.92046167  0.34613473     0.05810
H4338       H  0.84430980  0.96538273  0.39701138     0.05650
C4339       C  0.65860154  0.58710484  0.73083756     0.02690
C4340       C  0.64895999  0.56339035  0.71744083    -0.13460
C4341       C  0.63011969  0.55926088  0.70108533     0.00190
C4342       C  0.62358194  0.58120559  0.69707534    -0.11980
C4343       C  0.63772875  0.60721629  0.70759002     0.02680
C4344       C  0.65582998  0.61031372  0.72367544    -0.11410
H4345       H  0.65745097  0.54908788  0.71892688     0.08280
H4346       H  0.60845529  0.57898050  0.68544528     0.05810
H4347       H  0.66848269  0.63164746  0.72986333     0.05650
C4348       C  0.58986312  0.50488253  0.65861804     0.02690
C4349       C  0.60515337  0.53105053  0.66919771    -0.13460
C4350       C  0.61704913  0.53216529  0.68855356     0.00190
C4351       C  0.61565406  0.50678726  0.69601411    -0.11980
C4352       C  0.60361171  0.98152580  0.68438517     0.02680
C4353       C  0.58956511  0.98032876  0.66627449    -0.11410
H4354       H  0.60709463  0.55019534  0.66222512     0.08280
H4355       H  0.62405356  0.50620058  0.71076213     0.05810
H4356       H  0.57866042  0.96018421  0.65795229     0.05650
C4357       C  0.74723544  0.99644937  0.49208853     0.02690
C4358       C  0.72243083  0.98399827  0.50418960    -0.13460
C4359       C  0.71958701  0.96652466  0.52118709     0.00190
C4360       C  0.74358269  0.96315933  0.52592470    -0.11980
C4361       C  0.76872890  0.97592218  0.51396500     0.02680
C4362       C  0.77007876  0.99201300  0.49683135    -0.11410
H4363       H  0.70597870  0.98886055  0.49992710     0.08280
H4364       H  0.74363449  0.95106649  0.53893886     0.05810
H4365       H  0.78933257  0.00182304  0.48748100     0.05650
C4366       C  0.66422031  0.92393039  0.56334650     0.02690
C4367       C  0.68952724  0.93635027  0.55160867    -0.13460
C4368       C  0.69220867  0.95260657  0.53389722     0.00190
C4369       C  0.66810648  0.95545386  0.52858276    -0.11980
C4370       C  0.64318248  0.94352370  0.54054928     0.02680
C4371       C  0.64121801  0.92766831  0.55779306    -0.11410
H4372       H  0.70665391  0.93300643  0.55681067     0.08280
H4373       H  0.66778419  0.96690465  0.51529136     0.05810
H4374       H  0.62182571  0.91839476  0.56700323     0.05650
C4375       C  0.83384352  0.75427959  0.22976854     0.02690
C4376       C  0.85697726  0.76383780  0.21628047    -0.13460
C4377       C  0.85652460  0.77586790  0.19727260     0.00190
C4378       C  0.83106533  0.77617277  0.19194146    -0.11980
C4379       C  0.80887723  0.76916433  0.20620163     0.02680
C4380       C  0.81109268  0.75899171  0.22531360    -0.11410
H4381       H  0.87491058  0.76152579  0.22107220     0.08280
H4382       H  0.82827619  0.78206878  0.17681480     0.05810
H4383       H  0.79431787  0.75337253  0.23656416     0.05650
C4384       C  0.91060278  0.82116581  0.15559532     0.02690
C4385       C  0.88572213  0.80817230  0.16776435    -0.13460
C4386       C  0.88257038  0.78872937  0.18349878     0.00190
C4387       C  0.90572327  0.78356651  0.18680228    -0.11980
C4388       C  0.93117477  0.79801785  0.17546918     0.02680
C4389       C  0.93309808  0.81587250  0.15951888    -0.11410
H4390       H  0.86952737  0.81413038  0.16502768     0.08280
H4391       H  0.90488239  0.76883738  0.19827478     0.05810
H4392       H  0.95267909  0.82653597  0.15052191     0.05650
C4393       C  0.93269353  0.67068915  0.98709010     0.02690
C4394       C  0.93943508  0.69347870  0.00071416    -0.13460
C4395       C  0.95676442  0.69796400  0.01811756     0.00190
C4396       C  0.96355324  0.67630152  0.02285109    -0.11980
C4397       C  0.95569078  0.65277338  0.00994015     0.02680
C4398       C  0.94250691  0.65145278  0.99142757    -0.11410
H4399       H  0.93035904  0.70699379  0.99754033     0.08280
H4400       H  0.97369751  0.67637327  0.03697208     0.05810
H4401       H  0.93791944  0.63395194  0.98104541     0.05650
C4402       C  0.98811519  0.74864374  0.06424752     0.02690
C4403       C  0.98435446  0.72871513  0.04881851    -0.13460
C4404       C  0.96552406  0.72337882  0.03219044     0.00190
C4405       C  0.95630539  0.74354646  0.02887981    -0.11980
C4406       C  0.96193147  0.76503955  0.04311060     0.02680
C4407       C  0.97445674  0.76502688  0.06170715    -0.11410
H4408       H  0.99682436  0.71803184  0.04972869     0.08280
H4409       H  0.94610801  0.74414680  0.01498173     0.05810
H4410       H  0.97590955  0.77996761  0.07334539     0.05650
C4411       C  0.57712682  0.65431295  0.82151875     0.02690
C4412       C  0.55072007  0.63799560  0.83185884    -0.13460
C4413       C  0.54908321  0.62399272  0.85050095     0.00190
C4414       C  0.57371449  0.62297057  0.85674729    -0.11980
C4415       C  0.59953161  0.63713160  0.84583900     0.02680
C4416       C  0.60147458  0.65385714  0.82892110    -0.11410
H4417       H  0.53172115  0.63677600  0.82531332     0.08280
H4418       H  0.57359471  0.61162236  0.87026712     0.05810
H4419       H  0.62202024  0.66607546  0.82123405     0.05650
C4420       C  0.49760335  0.58740717  0.89549113     0.02690
C4421       C  0.51902568  0.59401560  0.88072573    -0.13460
C4422       C  0.52294511  0.61258223  0.86415095     0.00190
C4423       C  0.50245896  0.62161547  0.86160451    -0.11980
C4424       C  0.97965725  0.61320747  0.87530782     0.02680
C4425       C  0.97823524  0.59750713  0.89271006    -0.11410
H4426       H  0.53244669  0.58444326  0.88255129     0.08280
H4427       H  0.50362726  0.63506815  0.84904320     0.05810
H4428       H  0.96103019  0.59188426  0.90360130     0.05650
O4429       O  0.78989720  0.58242879  0.80591302    -0.86930
O4430       O  0.87091829  0.71014896  0.87530562    -0.87090
O4431       O  0.83876204  0.67804730  0.80841853    -0.88760
O4432       O  0.87526553  0.63686288  0.84954030    -0.87520
O4433       O  0.85688564  0.60570302  0.87662103    -0.87110
O4434       O  0.79906253  0.68352442  0.80979344    -0.88480
O4435       O  0.87835725  0.69595174  0.84432008    -0.86960
O4436       O  0.83577428  0.62114425  0.80712783    -0.86540
Zr4437     Zr  0.83846597  0.64851064  0.83724627     2.84310
O4438       O  0.83802087  0.64498000  0.87250808    -1.08520
O4439       O  0.79113816  0.63061253  0.82658544    -1.09250
C4440       C  0.81554772  0.59831333  0.79858892     1.06180
C4441       C  0.88625181  0.71390686  0.85913946     1.06120
C4442       C  0.82243079  0.68744438  0.80126161     1.09110
C4443       C  0.87704391  0.62119215  0.86392555     1.06890
H4444       H  0.83101804  0.69593277  0.84607100     0.32440
O4445       O  0.81975479  0.67624060  0.85070765    -1.29470
H4446       H  0.81923196  0.58974186  0.84210974     0.32120
O4447       O  0.81071500  0.60038737  0.84780445    -1.31150
O4448       O  0.79576702  0.67691695  0.91585364    -0.86920
O4449       O  0.71642295  0.54439832  0.84841204    -0.88420
O4450       O  0.78889993  0.70801820  0.85219858    -0.87000
O4451       O  0.84367014  0.62299823  0.91001254    -0.87050
O4452       O  0.79730652  0.54953918  0.86898870    -0.86760
O4453       O  0.74323088  0.63242937  0.81016328    -0.86560
O4454       O  0.70657149  0.61873314  0.87621465    -0.86940
O4455       O  0.74155861  0.58148024  0.91480032    -0.86400
O4456       O  0.72360518  0.64941509  0.84894188    -0.87460
O4457       O  0.77780772  0.57065309  0.91294241    -0.86620
O4458       O  0.81891957  0.71720980  0.87947970    -0.87020
O4459       O  0.73776790  0.58760029  0.80809099    -0.86740
O4460       O  0.77037853  0.54112644  0.84008682    -0.86390
O4461       O  0.85142664  0.66883249  0.91218162    -0.86800
O4462       O  0.74881665  0.63990536  0.91393038    -0.87100
O4463       O  0.70646920  0.56021016  0.87818269    -0.88430
Zr4464     Zr  0.82165930  0.67422289  0.88615366     2.83100
Zr4465     Zr  0.76356278  0.58243574  0.83638460     2.83500
Zr4466     Zr  0.77204682  0.65820523  0.83991338     2.84090
Zr4467     Zr  0.80901028  0.59702953  0.88342877     2.83360
Zr4468     Zr  0.74507201  0.60916680  0.88529304     2.84220
O4469       O  0.76233943  0.57992328  0.87191372    -1.09000
O4470       O  0.77386416  0.65722263  0.87531936    -1.08510
C4471       C  0.76948811  0.66267451  0.92232448     1.06150
C4472       C  0.70083076  0.54104806  0.86431407     1.08770
C4473       C  0.80548853  0.72438933  0.86669300     1.06330
C4474       C  0.85651633  0.64856679  0.91764117     1.06690
C4475       C  0.78384539  0.53433868  0.85312271     1.06270
C4476       C  0.73345118  0.60765654  0.80136650     1.05820
C4477       C  0.70373663  0.63368282  0.86201495     1.06250
C4478       C  0.75502588  0.56898365  0.92140960     1.05760
H4479       H  0.72451716  0.60149216  0.84509345     0.32440
O4480       O  0.74409973  0.60982781  0.84982829    -1.30100
H4481       H  0.79271644  0.62599317  0.91157639     0.32460
O4482       O  0.79222200  0.62642490  0.89694330    -1.31490
O4483       O  0.90976540  0.91173621  0.97588556    -0.86930
O4484       O  0.96896962  0.54427673  0.04260200    -0.87090
O4485       O  0.88177954  0.96533072  0.01503610    -0.88760
O4486       O  0.95785354  0.51063101  0.97714339    -0.87520
O4487       O  0.50197258  0.51385640  0.97505001    -0.87110
O4488       O  0.86979035  0.93615396  0.04309667    -0.88480
O4489       O  0.94021732  0.52824352  0.01429070    -0.86960
O4490       O  0.90324741  0.95093990  0.97741708    -0.86540
Zr4491     Zr  0.93138965  0.98026309  0.00594938     2.84310
O4492       O  0.97854501  0.50737220  0.01772646    -1.08520
O4493       O  0.91188769  0.93289791  0.01742533    -1.09250
C4494       C  0.89929660  0.92729298  0.96928823     1.06180
C4495       C  0.95510342  0.54744676  0.02777331     1.06120
C4496       C  0.86399937  0.94921039  0.02894565     1.09110
C4497       C  0.98238878  0.51912130  0.96837072     1.06890
H4498       H  0.92022442  0.98819259  0.04615328     0.32440
O4499       O  0.93146284  0.97976338  0.04145237    -1.29470
H4500       H  0.95831757  0.96082558  0.97834028     0.32120
O4501       O  0.95851342  0.96065314  0.99298386    -1.31150
O4502       O  0.50566699  0.50587292  0.08325384    -0.86920
O4503       O  0.94939495  0.87534861  0.01405938    -0.88420
O4504       O  0.90821966  0.96063301  0.08097082    -0.87000
O4505       O  0.53869849  0.53866918  0.01319004    -0.87050
O4506       O  0.50904836  0.96086217  0.97610932    -0.86760
O4507       O  0.87392737  0.88493070  0.04059635    -0.86560
O4508       O  0.96045916  0.90796443  0.07966742    -0.86940
O4509       O  0.53578819  0.95327367  0.03996437    -0.86400
O4510       O  0.91528127  0.90301632  0.08064801    -0.87460
O4511       O  0.54761406  0.98376991  0.01254374    -0.86620
O4512       O  0.94735268  0.50620998  0.07995259    -0.87020
O4513       O  0.89122490  0.87335902  0.01254282    -0.86740
O4514       O  0.96857413  0.91602894  0.97552368    -0.86390
O4515       O  0.52542316  0.54801739  0.04405372    -0.86800
O4516       O  0.51165280  0.96631223  0.08168732    -0.87100
O4517       O  0.97811503  0.89115025  0.04232722    -0.88430
Zr4518     Zr  0.97903316  0.50651957  0.05320711     2.83100
Zr4519     Zr  0.93896649  0.91320895  0.00457858     2.83500
Zr4520     Zr  0.91161280  0.93203599  0.05293394     2.84090
Zr4521     Zr  0.50579937  0.98815471  0.00462852     2.83360
Zr4522     Zr  0.98670206  0.93928018  0.05129968     2.84220
O4523       O  0.98661141  0.94029825  0.01578787    -1.09000
O4524       O  0.95926519  0.95883342  0.06436063    -1.08510
C4525       C  0.51495571  0.98945350  0.09035153     1.06150
C4526       C  0.96354039  0.87203220  0.02862081     1.08770
C4527       C  0.92275620  0.98711422  0.08725652     1.06330
C4528       C  0.54216879  0.55539271  0.02838045     1.06690
C4529       C  0.99312500  0.93553895  0.96836241     1.06270
C4530       C  0.87118894  0.86817388  0.02556774     1.05820
C4531       C  0.93500532  0.89780302  0.08732472     1.06250
C4532       C  0.55309199  0.96942831  0.02574828     1.05760
H4533       H  0.93018900  0.89261275  0.04464157     0.32440
O4534       O  0.93889950  0.91235535  0.04006344    -1.30100
H4535       H  0.52636565  0.49851641  0.04516849     0.32460
O4536       O  0.50680675  0.98730147  0.04033059    -1.31490
O4537       O  0.84225603  0.68016520  0.41325469    -0.86930
O4538       O  0.78873097  0.54636969  0.34907504    -0.87090
O4539       O  0.79174044  0.57979984  0.41535594    -0.88760
O4540       O  0.86671709  0.62023113  0.37277974    -0.87520
O4541       O  0.87784949  0.64978408  0.34502555    -0.87110
O4542       O  0.74555661  0.57216430  0.41465378    -0.88480
O4543       O  0.81688758  0.56391117  0.37760616    -0.86960
O4544       O  0.85040890  0.64209365  0.41192692    -0.86540
Zr4545     Zr  0.81930607  0.60920322  0.38572567     2.84310
O4546       O  0.81922529  0.60896270  0.35011725    -1.08520
O4547       O  0.79077416  0.62789472  0.39766640    -1.09250
C4548       C  0.85487417  0.66627828  0.41942651     1.06180
C4549       C  0.80451265  0.54503762  0.36346840     1.06120
C4550       C  0.76566345  0.56876901  0.42241315     1.09110
C4551       C  0.88335066  0.63506352  0.35789053     1.06890
H4552       H  0.76424355  0.56041013  0.37905052     0.32440
O4553       O  0.77201552  0.57990325  0.37412240    -1.29470
H4554       H  0.85764161  0.66796190  0.37760571     0.32120
O4555       O  0.83790395  0.65623846  0.37327844    -1.31150
O4556       O  0.73965641  0.57488771  0.31093270    -0.86920
O4557       O  0.79511259  0.71023980  0.37525875    -0.88420
O4558       O  0.70816924  0.54926460  0.37398054    -0.87000
O4559       O  0.83901892  0.62972063  0.30790905    -0.87050
O4560       O  0.87235794  0.70510431  0.34715707    -0.86760
O4561       O  0.74047327  0.62646771  0.41453556    -0.86560
O4562       O  0.71186275  0.63159737  0.34988898    -0.86940
O4563       O  0.78758323  0.67607907  0.30978539    -0.86400
O4564       O  0.70263916  0.60500279  0.37875710    -0.87460
O4565       O  0.83337964  0.68283471  0.30957023    -0.86620
O4566       O  0.72622318  0.53872671  0.34572457    -0.87020
O4567       O  0.77982846  0.67229160  0.41413116    -0.86740
O4568       O  0.85530079  0.71696461  0.37542856    -0.86390
O4569       O  0.80082314  0.58344043  0.30875898    -0.86800
O4570       O  0.73234411  0.61371716  0.31108537    -0.87100
O4571       O  0.76595834  0.69217550  0.34724452    -0.88430
Zr4572     Zr  0.77229176  0.58012708  0.33853518     2.83100
Zr4573     Zr  0.80964833  0.67516878  0.38538468     2.83500
Zr4574     Zr  0.74345114  0.59877567  0.38579174     2.84090
Zr4575     Zr  0.83678680  0.65576050  0.33777789     2.83360
Zr4576     Zr  0.76094699  0.64555667  0.33869844     2.84220
O4577       O  0.80849488  0.67463377  0.34987361    -1.09000
O4578       O  0.74320186  0.59838978  0.35041154    -1.08510
C4579       C  0.72824088  0.58943955  0.30393179     1.06150
C4580       C  0.77958276  0.71176192  0.36082580     1.08770
C4581       C  0.70663127  0.53233701  0.35921811     1.06330
C4582       C  0.82396015  0.60393212  0.30062625     1.06690
C4583       C  0.87434713  0.72254475  0.36146237     1.06270
C4584       C  0.75572622  0.65243037  0.42159272     1.05820
C4585       C  0.69572861  0.61774261  0.36523992     1.06250
C4586       C  0.81328038  0.68670896  0.30231375     1.05760
H4587       H  0.75077700  0.65427641  0.37915305     0.32440
O4588       O  0.76217580  0.64620578  0.37411373    -1.30100
H4589       H  0.78902415  0.62683614  0.31169967     0.32460
O4590       O  0.78952263  0.62701470  0.32634367    -1.31490
O4591       O  0.70769849  0.87428417  0.68148226    -0.86930
O4592       O  0.57576595  0.79346403  0.74874611    -0.87090
O4593       O  0.63021693  0.87855977  0.71086642    -0.88760
O4594       O  0.67504524  0.84536277  0.74728821    -0.87520
O4595       O  0.67940883  0.80503784  0.74740547    -0.87110
O4596       O  0.60138016  0.86232320  0.68267311    -0.88480
O4597       O  0.61500600  0.83939690  0.74819570    -0.86960
O4598       O  0.69081481  0.88466866  0.71047364    -0.86540
Zr4599     Zr  0.64450185  0.84293625  0.71911484     2.84310
O4600       O  0.62566530  0.79531956  0.73033730    -1.08520
O4601       O  0.64350533  0.84459426  0.68366198    -1.09250
C4602       C  0.71001433  0.89085234  0.69652859     1.06180
C4603       C  0.59115824  0.81940042  0.75584036     1.06120
C4604       C  0.61466173  0.88092297  0.69688050     1.09110
C4605       C  0.68425305  0.82930832  0.75502252     1.06890
H4606       H  0.58543149  0.82261354  0.71364909     0.32440
O4607       O  0.59680441  0.81476858  0.70816706    -1.29470
H4608       H  0.69249513  0.83595689  0.71093725     0.32120
O4609       O  0.67289205  0.82464922  0.70622138    -1.31150
O4610       O  0.54259677  0.71782785  0.70738140    -0.86920
O4611       O  0.67548279  0.79907842  0.64212540    -0.88420
O4612       O  0.54709976  0.80265116  0.68410319    -0.87000
O4613       O  0.62721795  0.74566224  0.74615505    -0.87050
O4614       O  0.70322657  0.79138110  0.70484161    -0.86760
O4615       O  0.62056448  0.84612082  0.64359263    -0.86560
O4616       O  0.57437746  0.74774877  0.64239821    -0.86940
O4617       O  0.61804640  0.71345385  0.68075952    -0.86400
O4618       O  0.56682864  0.78628417  0.64448241    -0.87460
O4619       O  0.64786544  0.73033893  0.70855737    -0.86620
O4620       O  0.53645604  0.77169786  0.71050436    -0.87020
O4621       O  0.66613313  0.85211685  0.64220552    -0.86740
O4622       O  0.71312574  0.82045138  0.67680017    -0.86390
O4623       O  0.58094675  0.73704895  0.74579548    -0.86800
O4624       O  0.55903685  0.70892654  0.67765837    -0.87100
O4625       O  0.63537786  0.75431865  0.64087223    -0.88430
Zr4626     Zr  0.57808136  0.76691880  0.71894966     2.83100
Zr4627     Zr  0.67141478  0.82574972  0.67067818     2.83500
Zr4628     Zr  0.59571916  0.81593507  0.67275381     2.84090
Zr4629     Zr  0.65413591  0.77709528  0.71740384     2.83360
Zr4630     Zr  0.60576459  0.75014878  0.67027971     2.84220
O4631       O  0.65316904  0.77812630  0.68180684    -1.09000
O4632       O  0.57727095  0.76819758  0.68348855    -1.08510
C4633       C  0.54013052  0.70177377  0.69185825     1.06150
C4634       C  0.66006476  0.77398365  0.63400610     1.08770
C4635       C  0.52984857  0.78600226  0.69804364     1.06330
C4636       C  0.60106661  0.73311815  0.75307661     1.06690
C4637       C  0.71953151  0.80661888  0.68982815     1.06270
C4638       C  0.64573479  0.85611853  0.63550314     1.05820
C4639       C  0.56290687  0.76270447  0.63621657     1.06250
C4640       C  0.63318487  0.71103180  0.69510857     1.05760
H4641       H  0.62352762  0.79793913  0.64466327     0.32440
O4642       O  0.62396169  0.79766264  0.65930055    -1.30100
H4643       H  0.59846310  0.72942218  0.71031577     0.32460
O4644       O  0.60660296  0.74911565  0.70578138    -1.31490
O4645       O  0.62090095  0.74186676  0.14141992    -0.86930
O4646       O  0.70141096  0.87627524  0.20771181    -0.87090
O4647       O  0.67602347  0.84003076  0.14128357    -0.88760
O4648       O  0.70578841  0.79624168  0.18084830    -0.87520
O4649       O  0.68939143  0.77227421  0.21078720    -0.87110
O4650       O  0.63844966  0.84899861  0.14141749    -0.88480
O4651       O  0.71327440  0.85792482  0.18009006    -0.86960
O4652       O  0.66729553  0.77990982  0.14229999    -0.86540
Zr4653     Zr  0.67148622  0.81130088  0.17089799     2.84310
O4654       O  0.67109947  0.81213608  0.20643056    -1.08520
O4655       O  0.62456990  0.79295418  0.15864788    -1.09250
C4656       C  0.64689196  0.75626908  0.13450102     1.06180
C4657       C  0.71885958  0.87758204  0.19363145     1.06120
C4658       C  0.66210325  0.85176676  0.13392060     1.09110
C4659       C  0.70820339  0.78305693  0.19643794     1.06890
H4660       H  0.66501456  0.86020958  0.17718261     0.32440
O4661       O  0.65325443  0.84074564  0.18214340    -1.29470
H4662       H  0.65034634  0.75280832  0.17828551     0.32120
O4663       O  0.64232821  0.76440692  0.18300854    -1.31150
O4664       O  0.62557931  0.84597161  0.24585224    -0.86920
O4665       O  0.54673409  0.70935477  0.18174078    -0.88420
O4666       O  0.61980834  0.87159375  0.17997027    -0.87000
O4667       O  0.67263621  0.79259583  0.24727980    -0.87050
O4668       O  0.62953919  0.71636138  0.20826391    -0.86760
O4669       O  0.57872494  0.79595172  0.14044376    -0.86560
O4670       O  0.54041584  0.78718668  0.20611700    -0.86940
O4671       O  0.57167700  0.74444022  0.24579213    -0.86400
O4672       O  0.55804641  0.81472290  0.17720922    -0.87460
O4673       O  0.61129450  0.73917007  0.24749987    -0.86620
O4674       O  0.64520140  0.88094231  0.20951642    -0.87020
O4675       O  0.56675414  0.74888889  0.14250863    -0.86740
O4676       O  0.60108539  0.70487190  0.17980689    -0.86390
O4677       O  0.67988051  0.83862474  0.24634753    -0.86800
O4678       O  0.57963881  0.80688858  0.24549905    -0.87100
O4679       O  0.53544530  0.72755001  0.20963774    -0.88430
Zr4680     Zr  0.65224258  0.84080283  0.21770936     2.83100
Zr4681     Zr  0.59522424  0.74579510  0.17065746     2.83500
Zr4682     Zr  0.60637419  0.82226672  0.16991839     2.84090
Zr4683     Zr  0.64201462  0.76527406  0.21862468     2.83360
Zr4684     Zr  0.57642351  0.77526993  0.21740133     2.84220
O4685       O  0.59505240  0.74637277  0.20621849    -1.09000
O4686       O  0.60534163  0.82242998  0.20542121    -1.08510
C4687       C  0.59960846  0.83120012  0.25276150     1.06150
C4688       C  0.52976593  0.70752330  0.19639521     1.08770
C4689       C  0.63343260  0.88789339  0.19527291     1.06330
C4690       C  0.68386371  0.81872874  0.25408541     1.06690
C4691       C  0.61466770  0.69929793  0.19361729     1.06270
C4692       C  0.56495277  0.76974492  0.13405415     1.05820
C4693       C  0.53828264  0.80097715  0.19078620     1.06250
C4694       C  0.58650788  0.73431197  0.25405502     1.05760
H4695       H  0.55771299  0.76673948  0.17687644     0.32440
O4696       O  0.57711705  0.77496431  0.18192155    -1.30100
H4697       H  0.62297933  0.79420966  0.24471178     0.32460
O4698       O  0.62322119  0.79394153  0.23006265    -1.31490
O4699       O  0.95821850  0.51357734  0.57975809    -0.86930
O4700       O  0.88136535  0.87864489  0.51709363    -0.87090
O4701       O  0.87523625  0.95577457  0.54235820    -0.88760
O4702       O  0.91097556  0.91195612  0.58035880    -0.87520
O4703       O  0.95062728  0.90614434  0.57888145    -0.87110
O4704       O  0.89183263  0.98464409  0.51409803    -0.88480
O4705       O  0.87033769  0.89743770  0.54458522    -0.86960
O4706       O  0.91286841  0.97357821  0.58002064    -0.86540
Zr4707     Zr  0.91190115  0.94335544  0.55238635     2.84310
O4708       O  0.93061885  0.91538311  0.53963748    -1.08520
O4709       O  0.93980445  0.99082394  0.54071183    -1.09250
C4710       C  0.93214259  0.49838947  0.58677973     1.06180
C4711       C  0.86460906  0.87704506  0.53188275     1.06120
C4712       C  0.87270974  0.97072144  0.52788966     1.09110
C4713       C  0.92664733  0.90129215  0.58672083     1.06890
H4714       H  0.89102908  0.93506697  0.51222530     0.32440
O4715       O  0.91066307  0.94330159  0.51684100    -1.29470
H4716       H  0.95955310  0.96208779  0.57844635     0.32120
O4717       O  0.95932744  0.96225613  0.56379574    -1.31150
O4718       O  0.95547019  0.91101107  0.47520512    -0.86920
O4719       O  0.53730605  0.54328640  0.54177027    -0.88420
O4720       O  0.90891843  0.96441964  0.47593041    -0.87000
O4721       O  0.96094818  0.88412498  0.54174753    -0.87050
O4722       O  0.50735779  0.95914810  0.57962187    -0.86760
O4723       O  0.95382111  0.54081369  0.51577198    -0.86560
O4724       O  0.50780582  0.51357561  0.47551933    -0.86940
O4725       O  0.54153152  0.97037658  0.51238327    -0.86400
O4726       O  0.96829033  0.51960684  0.47682443    -0.87460
O4727       O  0.52531347  0.94161535  0.54073514    -0.86620
O4728       O  0.90150397  0.91821789  0.47614661    -0.87020
O4729       O  0.98552745  0.55226678  0.54214101    -0.86740
O4730       O  0.51521952  0.50528670  0.57999324    -0.86390
O4731       O  0.93316198  0.87283573  0.51319821    -0.86800
O4732       O  0.50072132  0.95104643  0.47437500    -0.87100
O4733       O  0.54580810  0.52791418  0.51143015    -0.88430
Zr4734     Zr  0.92919616  0.91492597  0.50426825     2.83100
Zr4735     Zr  0.98734863  0.50954980  0.55199818     2.83500
Zr4736     Zr  0.93861914  0.49096451  0.50516796     2.84090
Zr4737     Zr  0.97819229  0.93447969  0.55028469     2.83360
Zr4738     Zr  0.50431163  0.98159212  0.50307372     2.84220
O4739       O  0.50595209  0.98167136  0.53858838    -1.09000
O4740       O  0.95677294  0.96240386  0.49208819    -1.08510
C4741       C  0.98095745  0.92639099  0.46752179     1.06150
C4742       C  0.55342243  0.54592474  0.52628813     1.08770
C4743       C  0.89798356  0.93855365  0.46866250     1.06330
C4744       C  0.94532722  0.86653890  0.52763660     1.06690
C4745       C  0.51879920  0.48474683  0.58714891     1.06270
C4746       C  0.97126569  0.55842439  0.52934089     1.05820
C4747       C  0.49257410  0.52458311  0.46923629     1.06250
C4748       C  0.54426348  0.95576084  0.52687029     1.05760
H4749       H  0.49745535  0.52922097  0.51158398     0.32440
O4750       O  0.98594277  0.50965257  0.51640114    -1.30100
H4751       H  0.98507305  0.92245718  0.50979286     0.32460
O4752       O  0.97712443  0.93398246  0.51482819    -1.31490
C4753       C  0.51462211  0.56043455  0.94460714    -0.02290
C4754       C  0.98769200  0.53563795  0.94898932     0.07390
C4755       C  0.96499167  0.52699290  0.93484548    -0.02400
C4756       C  0.96867609  0.54325904  0.91721375    -0.02400
C4757       C  0.99475008  0.56912394  0.91354893     0.07530
C4758       C  0.51779741  0.57751001  0.92733952    -0.02600
Br4759     Br  0.55329616  0.61351966  0.92347640    -0.01150
Br4760     Br  0.54731472  0.57201173  0.96230229    -0.01220
Br4761     Br  0.93783041  0.52876382  0.89771517    -0.01180
Br4762     Br  0.92863991  0.49182870  0.93860815    -0.01160
C4763       C  0.90336728  0.59362959  0.86473652    -0.02290
C4764       C  0.90408698  0.62026311  0.86618354     0.07390
C4765       C  0.93029851  0.64518620  0.87140318    -0.02400
C4766       C  0.95570844  0.64358521  0.87362536    -0.02400
C4767       C  0.95493531  0.61717383  0.87032152     0.07530
C4768       C  0.92899087  0.59280375  0.86451126    -0.02600
Br4769     Br  0.92863571  0.55870323  0.85465317    -0.01150
Br4770     Br  0.86795347  0.55758598  0.86754932    -0.01220
Br4771     Br  0.49133956  0.67718711  0.88138304    -0.01180
Br4772     Br  0.93011604  0.67959725  0.87968687    -0.01160
C4773       C  0.57303076  0.70878946  0.78553492    -0.02290
C4774       C  0.59342432  0.71208984  0.77032967     0.07390
C4775       C  0.60561340  0.69391847  0.77143852    -0.02400
C4776       C  0.59585661  0.67203952  0.78616630    -0.02400
C4777       C  0.58000797  0.67237659  0.80319023     0.07530
C4778       C  0.56898923  0.69154243  0.80286535    -0.02600
Br4779     Br  0.55016542  0.69638368  0.82640884    -0.01150
Br4780     Br  0.54948364  0.72662799  0.78317737    -0.01220
Br4781     Br  0.60072657  0.63937089  0.78105804    -0.01180
Br4782     Br  0.63589610  0.69781397  0.75338640    -0.01160
C4783       C  0.66088810  0.63721432  0.87518082    -0.02290
C4784       C  0.67497800  0.63119511  0.85938517     0.07390
C4785       C  0.66050484  0.62131949  0.84074143    -0.02400
C4786       C  0.63421337  0.62036997  0.83744439    -0.02400
C4787       C  0.62431261  0.63338216  0.85141015     0.07530
C4788       C  0.63738497  0.64118577  0.87070090    -0.02600
Br4789     Br  0.62394590  0.65784536  0.89091065    -0.01150
Br4790     Br  0.66953380  0.63464019  0.90304993    -0.01220
Br4791     Br  0.60975999  0.59738108  0.81552364    -0.01180
Br4792     Br  0.67456396  0.60571552  0.82052083    -0.01160
C4793       C  0.52531513  0.78179732  0.09019088    -0.02290
C4794       C  0.50759520  0.75366920  0.08222520     0.07390
C4795       C  0.50889680  0.73057918  0.09178860    -0.02400
C4796       C  0.53008607  0.73619964  0.10665408    -0.02400
C4797       C  0.54517210  0.76377197  0.11612137     0.07530
C4798       C  0.54014780  0.78580991  0.10850503    -0.02600
Br4799     Br  0.55001294  0.82117498  0.12319179    -0.01150
Br4800     Br  0.53304707  0.81642857  0.07582843    -0.01220
Br4801     Br  0.53842131  0.70570934  0.11249733    -0.01180
Br4802     Br  0.98003862  0.69078882  0.08667225    -0.01160
C4803       C  0.98710053  0.81615169  0.03206284    -0.02290
C4804       C  0.96101713  0.79113296  0.03696112     0.07390
C4805       C  0.93509630  0.79167033  0.03611257    -0.02400
C4806       C  0.93569843  0.81774203  0.03155428    -0.02400
C4807       C  0.96244092  0.84384815  0.03011171     0.07530
C4808       C  0.98818344  0.84278991  0.03061271    -0.02600
Br4809     Br  0.52518768  0.87742700  0.02978719    -0.01150
Br4810     Br  0.52061596  0.81332386  0.02498929    -0.01220
Br4811     Br  0.89985678  0.81731445  0.02772383    -0.01180
Br4812     Br  0.89907476  0.75677132  0.04108636    -0.01160
C4813       C  0.94167130  0.61017042  0.03272256    -0.02290
C4814       C  0.95855049  0.62785483  0.01644801     0.07390
C4815       C  0.97609860  0.62016077  0.00525315    -0.02400
C4816       C  0.97516201  0.59396596  0.00928887    -0.02400
C4817       C  0.95769246  0.57592814  0.02508526     0.07530
C4818       C  0.94200385  0.58467058  0.03740695    -0.02600
Br4819     Br  0.92056831  0.56132546  0.06033471    -0.01150
Br4820     Br  0.91619499  0.61934693  0.04759104    -0.01220
Br4821     Br  0.49833883  0.58302477  0.99338884    -0.01180
Br4822     Br  0.50151470  0.64557799  0.98443096    -0.01160
C4823       C  0.87672625  0.63166394  0.94594799    -0.02290
C4824       C  0.87813059  0.65459735  0.93420040     0.07390
C4825       C  0.90038064  0.68313548  0.93879831    -0.02400
C4826       C  0.91925032  0.68820264  0.95527034    -0.02400
C4827       C  0.91391845  0.66564358  0.96893791     0.07530
C4828       C  0.89131911  0.63750024  0.96449930    -0.02600
Br4829     Br  0.87768730  0.60662937  0.98428259    -0.01150
Br4830     Br  0.85979626  0.59237203  0.93605535    -0.01220
Br4831     Br  0.95346325  0.72570406  0.95800939    -0.01180
Br4832     Br  0.90785130  0.71541501  0.92155574    -0.01160
C4833       C  0.96542070  0.78032661  0.16859793    -0.02290
C4834       C  0.95692163  0.79624580  0.18088342     0.07390
C4835       C  0.97441098  0.81263878  0.19723514    -0.02400
C4836       C  0.50083841  0.81377616  0.20085443    -0.02400
C4837       C  0.51015312  0.79919711  0.18780446     0.07530
C4838       C  0.99186912  0.78167245  0.17215328    -0.02600
Br4839     Br  0.50209448  0.75804357  0.15631000    -0.01150
Br4840     Br  0.94065316  0.75662385  0.14693913    -0.01220
Br4841     Br  0.52420120  0.83524919  0.22360307    -0.01180
Br4842     Br  0.96272636  0.83453430  0.21409857    -0.01160
C4843       C  0.89892085  0.83087100  0.12077140    -0.02290
C4844       C  0.91431229  0.84138297  0.13902120     0.07390
C4845       C  0.93672944  0.87030337  0.14021999    -0.02400
C4846       C  0.94422704  0.88832011  0.12311693    -0.02400
C4847       C  0.92795320  0.87838356  0.10512094     0.07530
C4848       C  0.90598733  0.84926173  0.10384319    -0.02600
Br4849     Br  0.88943573  0.83322384  0.07796725    -0.01150
Br4850     Br  0.86963067  0.79073243  0.11847897    -0.01220
Br4851     Br  0.97875058  0.92531816  0.12395898    -0.01180
Br4852     Br  0.95742541  0.88523888  0.16538735    -0.01160
C4853       C  0.84477807  0.73193634  0.28226425    -0.02290
C4854       C  0.82003853  0.70407731  0.28357470     0.07390
C4855       C  0.80241851  0.69213234  0.26636296    -0.02400
C4856       C  0.81001295  0.70749738  0.24808521    -0.02400
C4857       C  0.83157458  0.73675219  0.24775676     0.07530
C4858       C  0.84939659  0.74891547  0.26479690    -0.02600
Br4859     Br  0.87972546  0.78872039  0.26428121    -0.01150
Br4860     Br  0.87201489  0.74745830  0.30433000    -0.01220
Br4861     Br  0.79384852  0.68733960  0.22301411    -0.01180
Br4862     Br  0.76829033  0.65441693  0.26719891    -0.01160
C4863       C  0.73227174  0.75525950  0.20822320    -0.02290
C4864       C  0.73417951  0.77957968  0.19808675     0.07390
C4865       C  0.76132663  0.80041537  0.18988463    -0.02400
C4866       C  0.78600239  0.79786939  0.19327730    -0.02400
C4867       C  0.78312748  0.77216455  0.20157442     0.07530
C4868       C  0.75540324  0.75008691  0.20739087    -0.02600
Br4869     Br  0.74753211  0.71137636  0.21259661    -0.01150
Br4870     Br  0.69963530  0.72906868  0.22494867    -0.01220
Br4871     Br  0.82363822  0.83094642  0.18812128    -0.01180
Br4872     Br  0.76623039  0.83369179  0.17493397    -0.01160
C4873       C  0.66301821  0.91923690  0.60106082    -0.02290
C4874       C  0.66153399  0.90711143  0.58179993     0.07390
C4875       C  0.65471736  0.87811341  0.58014957    -0.02400
C4876       C  0.64969907  0.86136871  0.59774823    -0.02400
C4877       C  0.65152958  0.87364172  0.61703139     0.07530
C4878       C  0.65747373  0.90235173  0.61860504    -0.02600
Br4879     Br  0.65638665  0.91804323  0.64470530    -0.01150
Br4880     Br  0.67248399  0.95899415  0.60336570    -0.01220
Br4881     Br  0.63768701  0.82096135  0.59527373    -0.01180
Br4882     Br  0.65074479  0.86096414  0.55371364    -0.01160
C4883       C  0.59749025  0.92953608  0.52198696    -0.02290
C4884       C  0.61920690  0.94840081  0.53537091     0.07390
C4885       C  0.61781700  0.97167840  0.54418956    -0.02400
C4886       C  0.59376271  0.97496940  0.54068560    -0.02400
C4887       C  0.57137329  0.95524279  0.52802029     0.07530
C4888       C  0.57399013  0.93350577  0.51787133    -0.02600
Br4889     Br  0.54575820  0.90974758  0.49800217    -0.01150
Br4890     Br  0.59943686  0.89764653  0.50998791    -0.01220
Br4891     Br  0.59148807  0.50636347  0.55337323    -0.01180
Br4892     Br  0.64867865  0.49863830  0.56134958    -0.01160
C4893       C  0.77103379  0.56305388  0.45952547    -0.02290
C4894       C  0.75811188  0.55064416  0.44086649     0.07390
C4895       C  0.73724569  0.52102479  0.44019140    -0.02400
C4896       C  0.73405285  0.00305960  0.45676338    -0.02400
C4897       C  0.74972584  0.51517862  0.47474661     0.07530
C4898       C  0.76675857  0.54541198  0.47647704    -0.02600
Br4899     Br  0.78246063  0.56280475  0.50237082    -0.01150
Br4900     Br  0.79060979  0.60427921  0.46257954    -0.01220
Br4901     Br  0.70849311  0.96193737  0.45477181    -0.01180
Br4902     Br  0.71091260  0.50560876  0.41769629    -0.01160
C4903       C  0.81879705  0.94578750  0.52421816    -0.02290
C4904       C  0.84553775  0.97158560  0.52642293     0.07390
C4905       C  0.84644628  0.99836832  0.52528662    -0.02400
C4906       C  0.82082692  0.99927433  0.52349029    -0.02400
C4907       C  0.79448543  0.97381953  0.51970666     0.07530
C4908       C  0.79357246  0.94697616  0.52003537    -0.02600
Br4909     Br  0.75841044  0.91202310  0.51324310    -0.01150
Br4910     Br  0.81706170  0.90885227  0.52458074    -0.01220
Br4911     Br  0.82182886  0.53544072  0.52737344    -0.01180
Br4912     Br  0.88265043  0.53422247  0.52472017    -0.01160
C4913       C  0.63415085  0.95921949  0.69188773    -0.02290
C4914       C  0.60656387  0.95649558  0.69058782     0.07390
C4915       C  0.58181078  0.92929802  0.69347276    -0.02400
C4916       C  0.58447616  0.90465692  0.69591247    -0.02400
C4917       C  0.61198186  0.90716509  0.69671007     0.07530
C4918       C  0.63683760  0.93476440  0.69564028    -0.02600
Br4919     Br  0.67478477  0.93917108  0.69792572    -0.01150
Br4920     Br  0.66842557  0.99587693  0.68664420    -0.01220
Br4921     Br  0.55008302  0.86755939  0.69824021    -0.01180
Br4922     Br  0.54410957  0.92577512  0.69426353    -0.01160
C4923       C  0.55211450  0.51067307  0.63958744    -0.02290
C4924       C  0.57353453  0.50254631  0.63973804     0.07390
C4925       C  0.57698156  0.48894970  0.62247444    -0.02400
C4926       C  0.55724917  0.98050184  0.60639946    -0.02400
C4927       C  0.53746140  0.49076733  0.60534163     0.07530
C4928       C  0.53524923  0.50617951  0.62208199    -0.02600
Br4929     Br  0.50685448  0.51840531  0.62227735    -0.01150
Br4930     Br  0.54379588  0.52571330  0.66379770    -0.01220
Br4931     Br  0.55637177  0.95237937  0.58751371    -0.01180
Br4932     Br  0.60957651  0.98284410  0.62020689    -0.01160
C4933       C  0.61022926  0.63355894  0.70817491    -0.02290
C4934       C  0.63462439  0.63213335  0.70186179     0.07390
C4935       C  0.65837892  0.65650798  0.69327617    -0.02400
C4936       C  0.65796882  0.68238116  0.69134598    -0.02400
C4937       C  0.63323541  0.68363468  0.69684221     0.07530
C4938       C  0.60972792  0.65946616  0.70599737    -0.02600
Br4939     Br  0.57922811  0.66324222  0.71870977    -0.01150
Br4940     Br  0.57847492  0.60068156  0.72113765    -0.01220
Br4941     Br  0.69261086  0.71683173  0.68363689    -0.01180
Br4942     Br  0.69199662  0.65467080  0.68481271    -0.01160
C4943       C  0.67727799  0.56695560  0.75928324    -0.02290
C4944       C  0.67434261  0.58970031  0.75067103     0.07390
C4945       C  0.68647710  0.61566288  0.76190494    -0.02400
C4946       C  0.70956588  0.62306748  0.77494783    -0.02400
C4947       C  0.71458382  0.60134600  0.78289485     0.07530
C4948       C  0.69767073  0.57276825  0.77489118    -0.02600
Br4949     Br  0.70124917  0.54037699  0.78445616    -0.01150
Br4950     Br  0.64814322  0.52693781  0.75494855    -0.01220
Br4951     Br  0.73280116  0.66378484  0.78107500    -0.01180
Br4952     Br  0.66376032  0.63359612  0.76842165    -0.01160
C4953       C  0.78805700  0.96850713  0.37297096    -0.02290
C4954       C  0.81391760  0.96987169  0.36685094     0.07390
C4955       C  0.83722228  0.99632332  0.36016979    -0.02400
C4956       C  0.83428038  0.52103595  0.35899986    -0.02400
C4957       C  0.80799317  0.51932999  0.36440448     0.07530
C4958       C  0.78570339  0.99347351  0.37254816    -0.02600
Br4959     Br  0.75471128  0.99379096  0.38687566    -0.01150
Br4960     Br  0.75649070  0.93293694  0.38343095    -0.01220
Br4961     Br  0.86710951  0.55771839  0.35209188    -0.01180
Br4962     Br  0.87334647  0.99875743  0.35317131    -0.01160
C4963       C  0.87103907  0.91747237  0.41451635    -0.02290
C4964       C  0.84716779  0.92184893  0.41450067     0.07390
C4965       C  0.83897055  0.92989061  0.43264735    -0.02400
C4966       C  0.85566391  0.93547529  0.45027369    -0.02400
C4967       C  0.87990895  0.93171736  0.45024089     0.07530
C4968       C  0.88703941  0.92188797  0.43242649    -0.02600
Br4969     Br  0.91980543  0.91611659  0.43204578    -0.01150
Br4970     Br  0.88303766  0.90720265  0.38971377    -0.01220
Br4971     Br  0.84485471  0.94794969  0.47451421    -0.01180
Br4972     Br  0.80433294  0.93260507  0.43354278    -0.01160
C4973       C  0.79218454  0.78298360  0.33997947    -0.02290
C4974       C  0.77597294  0.78985015  0.35328815     0.07390
C4975       C  0.76219141  0.77184677  0.37012406    -0.02400
C4976       C  0.76438346  0.74687370  0.37329152    -0.02400
C4977       C  0.77845143  0.73875418  0.35879272     0.07530
C4978       C  0.79155787  0.75661412  0.34183985    -0.02600
Br4979     Br  0.80789005  0.74483306  0.32053381    -0.01150
Br4980     Br  0.81729223  0.81071477  0.32020522    -0.01220
Br4981     Br  0.74690760  0.72308917  0.39679360    -0.01180
Br4982     Br  0.73998427  0.78116028  0.38849700    -0.01160
C4983       C  0.71443494  0.84155058  0.30749554    -0.02290
C4984       C  0.73752228  0.83590165  0.30701879     0.07390
C4985       C  0.74458459  0.82770422  0.28845526    -0.02400
C4986       C  0.72668309  0.82144741  0.27144787    -0.02400
C4987       C  0.70319995  0.82638350  0.27198298     0.07530
C4988       C  0.69843447  0.83836017  0.28971707    -0.02600
Br4989     Br  0.67032531  0.85072375  0.28988397    -0.01150
Br4990     Br  0.70347748  0.85210370  0.33263024    -0.01220
Br4991     Br  0.73546547  0.80718395  0.24717287    -0.01180
Br4992     Br  0.78008626  0.82723666  0.28554666    -0.01160
C4993       C  0.91434100  0.51623427  0.13802278    -0.02290
C4994       C  0.88400032  0.00275680  0.13970799     0.07390
C4995       C  0.86708343  0.98900572  0.12243095    -0.02400
C4996       C  0.87970424  0.98434555  0.10513153    -0.02400
C4997       C  0.90989207  0.99594022  0.10405787     0.07530
C4998       C  0.92710434  0.51531128  0.11951710    -0.02600
Br4999     Br  0.96719307  0.54362676  0.11507558    -0.01150
Br5000     Br  0.93899805  0.53399660  0.16121515    -0.01220
Br5001     Br  0.85547853  0.96469681  0.08214930    -0.01180
Br5002     Br  0.82687737  0.97817739  0.12174488    -0.01160
C5003       C  0.75080708  0.92828852  0.18179904    -0.02290
C5004       C  0.74741137  0.90404815  0.19259806     0.07390
C5005       C  0.77149541  0.90499317  0.20194064    -0.02400
C5006       C  0.79916751  0.92924931  0.19936139    -0.02400
C5007       C  0.80262056  0.95315535  0.18817399     0.07530
C5008       C  0.77828696  0.95288051  0.17980349    -0.02600
Br5009     Br  0.78273263  0.98610043  0.16515168    -0.01150
Br5010     Br  0.71800528  0.92774197  0.16926586    -0.01220
Br5011     Br  0.83240993  0.92975467  0.21089723    -0.01180
Br5012     Br  0.76638435  0.87344745  0.21877737    -0.01160
C5013       C  0.84925716  0.60915288  0.24601541    -0.02290
C5014       C  0.85749790  0.58798122  0.24565914     0.07390
C5015       C  0.85325970  0.57093031  0.26303996    -0.02400
C5016       C  0.84036176  0.57475171  0.28053383    -0.02400
C5017       C  0.83415764  0.59747692  0.28142407     0.07530
C5018       C  0.83890460  0.61477831  0.26407315    -0.02600
Br5019     Br  0.83150272  0.64642739  0.26477200    -0.01150
Br5020     Br  0.85183246  0.63019122  0.22157525    -0.01220
Br5021     Br  0.83327535  0.55007533  0.30370144    -0.01180
Br5022     Br  0.86747199  0.54412265  0.26357731    -0.01160
C5023       C  0.96777827  0.63983023  0.21997249    -0.02290
C5024       C  0.94711426  0.63007031  0.20438124     0.07390
C5025       C  0.95430353  0.64456144  0.18554261    -0.02400
C5026       C  0.98179381  0.66899553  0.18252008    -0.02400
C5027       C  0.00176890  0.68010265  0.19863959     0.07530
C5028       C  0.99462598  0.66498991  0.21726936    -0.02600
Br5029     Br  0.52181345  0.67768853  0.23913083    -0.01150
Br5030     Br  0.95963020  0.61814951  0.24496873    -0.01220
Br5031     Br  0.99135797  0.68750488  0.15641179    -0.01180
Br5032     Br  0.92589717  0.63212069  0.16423067    -0.01160
C5033       C  0.91725700  0.62797579  0.33539018    -0.02290
C5034       C  0.91047451  0.63440299  0.35478971     0.07390
C5035       C  0.92943182  0.63944329  0.37109753    -0.02400
C5036       C  0.95535988  0.63926361  0.36776969    -0.02400
C5037       C  0.96143143  0.63184119  0.34845197     0.07530
C5038       C  0.94141721  0.62471683  0.33265424    -0.02600
Br5039     Br  0.94658410  0.60952963  0.30725725    -0.01150
Br5040     Br  0.89451052  0.62425372  0.31192457    -0.01220
Br5041     Br  0.98325985  0.65149252  0.38943018    -0.01180
Br5042     Br  0.92137161  0.64928381  0.39762266    -0.01160
C5043       C  0.56650411  0.67511084  0.29384149    -0.02290
C5044       C  0.55218148  0.68276675  0.30853869     0.07390
C5045       C  0.54943954  0.70728308  0.30516747    -0.02400
C5046       C  0.55664478  0.72103787  0.28627112    -0.02400
C5047       C  0.57412353  0.71596507  0.27254105     0.07530
C5048       C  0.57886140  0.69257643  0.27651079    -0.02600
Br5049     Br  0.59830435  0.68115569  0.25692048    -0.01150
Br5050     Br  0.56721575  0.63944055  0.29621865    -0.01220
Br5051     Br  0.53706556  0.74186461  0.27886286    -0.01180
Br5052     Br  0.53652503  0.72300655  0.32659502    -0.01160
C5053       C  0.52979488  0.57162588  0.45462184    -0.02290
C5054       C  0.50426590  0.54491310  0.45212673     0.07390
C5055       C  0.49053628  0.53734881  0.43313320    -0.02400
C5056       C  0.50361997  0.55531174  0.41625056    -0.02400
C5057       C  0.52972721  0.58174976  0.41860359     0.07530
C5058       C  0.54212845  0.59031165  0.43800128    -0.02600
Br5059     Br  0.57589174  0.62777240  0.44182406    -0.01150
Br5060     Br  0.54786929  0.58276662  0.48085929    -0.01220
Br5061     Br  0.48679950  0.54216729  0.38972433    -0.01180
Br5062     Br  0.95450685  0.00165900  0.43003657    -0.01160
C5063       C  0.61627572  0.58885071  0.37702080    -0.02290
C5064       C  0.61219051  0.61189858  0.37125568     0.07390
C5065       C  0.63597246  0.63740498  0.36353169    -0.02400
C5066       C  0.66284474  0.63891495  0.36061452    -0.02400
C5067       C  0.66721992  0.61632836  0.36775569     0.07530
C5068       C  0.64409638  0.59285234  0.37814335    -0.02600
Br5069     Br  0.64949815  0.56909524  0.39784563    -0.01150
Br5070     Br  0.58383156  0.55092694  0.38275931    -0.01220
Br5071     Br  0.69433587  0.67422902  0.34965597    -0.01180
Br5072     Br  0.63300208  0.67146613  0.35855659    -0.01160
C5073       C  0.78233234  0.91471072  0.03030814    -0.02290
C5074       C  0.77903432  0.93918855  0.03180019     0.07390
C5075       C  0.80364622  0.96704281  0.03075045    -0.02400
C5076       C  0.83128560  0.97026046  0.02876283    -0.02400
C5077       C  0.83471998  0.94574527  0.02884306     0.07530
C5078       C  0.81001918  0.91797059  0.02929795    -0.02600
Br5079     Br  0.81360869  0.88402315  0.02800785    -0.01150
Br5080     Br  0.74875908  0.87651377  0.02937171    -0.01220
Br5081     Br  0.86447363  0.50855933  0.02723691    -0.01180
Br5082     Br  0.80011325  0.50109748  0.03376000    -0.01160
C5083       C  0.71518673  0.91052361  0.09852386    -0.02290
C5084       C  0.69832349  0.90613850  0.08109857     0.07390
C5085       C  0.66914556  0.88387568  0.08114280    -0.02400
C5086       C  0.65708399  0.86671006  0.09860752    -0.02400
C5087       C  0.67458097  0.87008639  0.11556841     0.07530
C5088       C  0.70430687  0.89084366  0.11466277    -0.02600
Br5089     Br  0.73169379  0.89080222  0.13359988    -0.01150
Br5090     Br  0.75297305  0.94436023  0.10083696    -0.00200
Br5091     Br  0.61757149  0.83579776  0.09795813    -0.01180
Br5092     Br  0.64596105  0.87508200  0.05692623    -0.01160
C5093       C  0.70174410  0.01157372  0.95720342    -0.02290
C5094       C  0.71884480  0.51500299  0.97436561     0.07390
C5095       C  0.74804258  0.53714071  0.97435882    -0.02400
C5096       C  0.76010121  0.55435167  0.95689002    -0.02400
C5097       C  0.74264690  0.55115823  0.93998637     0.07530
C5098       C  0.71260734  0.53183993  0.94151317    -0.02600
Br5099     Br  0.68475925  0.03529079  0.92484914    -0.01150
Br5100     Br  0.66358696  0.97838718  0.95430377    -0.01220
Br5101     Br  0.79899004  0.58594992  0.95775180    -0.01180
Br5102     Br  0.77106069  0.54575426  0.99861544    -0.01160
C5103       C  0.60554388  0.99210307  0.03420008    -0.02290
C5104       C  0.58118103  0.97086807  0.02382220     0.07390
C5105       C  0.58403666  0.95190065  0.01044660    -0.02400
C5106       C  0.61027308  0.95208490  0.00904409    -0.02400
C5107       C  0.63448060  0.97291337  0.01975746     0.07530
C5108       C  0.63216302  0.99307304  0.03220768    -0.02600
Br5109     Br  0.66581733  0.52257177  0.04592641    -0.01150
Br5110     Br  0.60340328  0.52194561  0.04905763    -0.01220
Br5111     Br  0.61332436  0.92447378  0.99185851    -0.01180
Br5112     Br  0.55337845  0.92863160  0.99194335    -0.01160
C5113       C  0.68721505  0.78875500  0.60064309    -0.02290
C5114       C  0.67171602  0.76723549  0.61546990     0.07390
C5115       C  0.66839246  0.73939435  0.61266719    -0.02400
C5116       C  0.68139759  0.73392846  0.59586942    -0.02400
C5117       C  0.69435755  0.75476086  0.58029540     0.07530
C5118       C  0.69495057  0.78129575  0.58223064    -0.02600
Br5119     Br  0.70565651  0.80752883  0.55945415    -0.01150
Br5120     Br  0.70241028  0.82945144  0.60572019    -0.01220
Br5121     Br  0.68381258  0.69903406  0.59560479    -0.01180
Br5122     Br  0.64975072  0.70957464  0.63305235    -0.01160
C5123       C  0.80479404  0.81088437  0.55831084    -0.02290
C5124       C  0.78668104  0.79534688  0.54203557     0.07390
C5125       C  0.79421877  0.80675766  0.52214519    -0.02400
C5126       C  0.81997493  0.83305406  0.51867267    -0.02400
C5127       C  0.83714127  0.84942341  0.53522710     0.07530
C5128       C  0.82804378  0.83880832  0.55523718    -0.02600
Br5129     Br  0.84437186  0.86243946  0.57914670    -0.01150
Br5130     Br  0.79814274  0.79369059  0.58505637    -0.01220
Br5131     Br  0.82954967  0.84808989  0.49134206    -0.01180
Br5132     Br  0.76839560  0.78798524  0.49967307    -0.01160
C5133       C  0.61525023  0.62390937  0.52811983    -0.02290
C5134       C  0.63913816  0.62059754  0.52306149     0.07390
C5135       C  0.63472194  0.59264351  0.51969229    -0.02400
C5136       C  0.60667294  0.56892218  0.51865839    -0.02400
C5137       C  0.58292757  0.57164824  0.52529664     0.07530
C5138       C  0.58758174  0.59943178  0.53028551    -0.02600
Br5139     Br  0.55565736  0.60497680  0.53753022    -0.01150
Br5140     Br  0.61933490  0.66185278  0.53025075    -0.01220
Br5141     Br  0.60193128  0.53428357  0.50580541    -0.01180
Br5142     Br  0.66719332  0.58638096  0.51709527    -0.01160
C5143       C  0.74845840  0.67334310  0.47540588    -0.02290
C5144       C  0.72094262  0.67085933  0.47469131     0.07390
C5145       C  0.70619844  0.66491961  0.45606039    -0.02400
C5146       C  0.71754620  0.65878348  0.43874174    -0.02400
C5147       C  0.74449464  0.66016825  0.43960011     0.07530
C5148       C  0.76062029  0.66904656  0.45770227    -0.02600
Br5149     Br  0.79912587  0.67471626  0.45850197    -0.01150
Br5150     Br  0.76880382  0.68044923  0.50082350    -0.01220
Br5151     Br  0.69639741  0.64943731  0.41369595    -0.01180
Br5152     Br  0.67071755  0.66591148  0.45411834    -0.01160
C5153       C  0.82783821  0.72815758  0.77813744    -0.02290
C5154       C  0.83116910  0.70373859  0.78164090     0.07390
C5155       C  0.84238395  0.69455606  0.76562459    -0.02400
C5156       C  0.85106171  0.71016949  0.74743335    -0.02400
C5157       C  0.85487449  0.73806094  0.74654035     0.07530
C5158       C  0.84221508  0.74674435  0.76165617    -0.02600
Br5159     Br  0.84441433  0.78377896  0.75984837    -0.01150
Br5160     Br  0.80143380  0.73507768  0.79374677    -0.01220
Br5161     Br  0.85282569  0.69157921  0.72276145    -0.01180
Br5162     Br  0.84509721  0.66017275  0.76736645    -0.01160
C5163       C  0.96498020  0.79777446  0.69174790    -0.02290
C5164       C  0.94406355  0.77655199  0.70488793     0.07390
C5165       C  0.95226498  0.75861234  0.71536525    -0.02400
C5166       C  0.98118394  0.76553355  0.71580032    -0.02400
C5167       C  0.00041761  0.78305541  0.70024692     0.07530
C5168       C  0.99059377  0.79744713  0.68711287    -0.02600
Br5169     Br  0.50961099  0.81518088  0.66180577    -0.01150
Br5170     Br  0.96193020  0.83023034  0.68201403    -0.01220
Br5171     Br  0.99277061  0.75175776  0.73920716    -0.01180
Br5172     Br  0.92487033  0.72173636  0.72680041    -0.01160
C5173       C  0.77195477  0.82603447  0.69813024    -0.02290
C5174       C  0.74747321  0.80764478  0.68653152     0.07390
C5175       C  0.75041244  0.79199023  0.67033743    -0.02400
C5176       C  0.77631965  0.79184922  0.66734345    -0.02400
C5177       C  0.80032238  0.80907556  0.67958803     0.07530
C5178       C  0.79828800  0.82660606  0.69476904    -0.02600
Br5179     Br  0.83196747  0.85227216  0.71027123    -0.01150
Br5180     Br  0.77045686  0.85325044  0.71648905    -0.01220
Br5181     Br  0.77908788  0.76817004  0.64628587    -0.01180
Br5182     Br  0.72024825  0.77324479  0.65074523    -0.01160
C5183       C  0.91137687  0.87426584  0.64080050    -0.02290
C5184       C  0.88900760  0.84566677  0.63775875     0.07390
C5185       C  0.88306604  0.83397074  0.61804082    -0.02400
C5186       C  0.89683536  0.85188955  0.60126230    -0.02400
C5187       C  0.91610180  0.88150594  0.60423360     0.07530
C5188       C  0.92581510  0.89176943  0.62396041    -0.02600
Br5189     Br  0.96103895  0.92786879  0.62764552    -0.01150
Br5190     Br  0.92186432  0.88946283  0.66790408    -0.01220
Br5191     Br  0.89154374  0.83561386  0.57445472    -0.01180
Br5192     Br  0.85641106  0.79342009  0.61419648    -0.01160
C5193       C  0.64802168  0.96699133  0.88524247    -0.02290
C5194       C  0.62239523  0.96176294  0.87574008     0.07390
C5195       C  0.62297815  0.98158977  0.86141609    -0.02400
C5196       C  0.64897834  0.50696716  0.85704107    -0.02400
C5197       C  0.67439130  0.51292415  0.86721501     0.07530
C5198       C  0.67395254  0.99276693  0.88124952    -0.02600
Br5199     Br  0.70862159  0.00068718  0.89546690    -0.01150
Br5200     Br  0.64737799  0.93869381  0.90361620    -0.01220
Br5201     Br  0.64958160  0.53413510  0.83767639    -0.01180
Br5202     Br  0.58789339  0.97430664  0.84816494    -0.01160
C5203       C  0.52030156  0.89903950  0.93208994    -0.02290
C5204       C  0.53224829  0.91982100  0.91646167     0.07390
C5205       C  0.52837247  0.94401632  0.91686559    -0.02400
C5206       C  0.51505644  0.94882219  0.93363853    -0.02400
C5207       C  0.50419872  0.92870741  0.94976322     0.07530
C5208       C  0.50547930  0.90298209  0.94835783    -0.02600
Br5209     Br  0.48818241  0.87342761  0.96899328    -0.01150
Br5210     Br  0.52590571  0.86605677  0.93207716    -0.01220
Br5211     Br  0.01094635  0.98271951  0.93390786    -0.01180
Br5212     Br  0.54043946  0.97025012  0.89408324    -0.01160
C5213       C  0.93807723  0.73925321  0.84720324    -0.02290
C5214       C  0.91511975  0.74055585  0.85706128     0.07390
C5215       C  0.91998315  0.76776930  0.86399211    -0.02400
C5216       C  0.94681008  0.79299886  0.86044375    -0.02400
C5217       C  0.97023573  0.79093499  0.85235676     0.07530
C5218       C  0.96585424  0.76342005  0.84711469    -0.02600
Br5219     Br  0.99796138  0.75763852  0.84103134    -0.01150
Br5220     Br  0.93272291  0.70585493  0.83191758    -0.01220
Br5221     Br  0.95021402  0.83027720  0.86516797    -0.01180
Br5222     Br  0.88946898  0.77164490  0.87659215    -0.01160
C5223       C  0.56923035  0.84629282  0.77185053    -0.02290
C5224       C  0.58018702  0.82731135  0.77385020     0.07390
C5225       C  0.58120901  0.81664996  0.79313779    -0.02400
C5226       C  0.56916046  0.82303165  0.80995112    -0.02400
C5227       C  0.55523804  0.83927020  0.80737661     0.07530
C5228       C  0.55612616  0.85173089  0.78847803    -0.02600
Br5229     Br  0.53944405  0.87618095  0.78551934    -0.01150
Br5230     Br  0.57275830  0.86540115  0.74652867    -0.01220
Br5231     Br  0.57274868  0.81057396  0.83669304    -0.01180
Br5232     Br  0.60079550  0.79504292  0.79679924    -0.01160
C5233       C  0.66314326  0.55838923  0.26879663    -0.02290
C5234       C  0.67520699  0.55456655  0.25081713     0.07390
C5235       C  0.70497717  0.56448509  0.25003445    -0.02400
C5236       C  0.72161497  0.57382405  0.26772903    -0.02400
C5237       C  0.70978861  0.57774508  0.28575157     0.07530
C5238       C  0.68073822  0.57113162  0.28597617    -0.02600
Br5239     Br  0.66470194  0.57844582  0.30995056    -0.01150
Br5240     Br  0.62260085  0.54577212  0.27002548    -0.01220
Br5241     Br  0.76065287  0.58113586  0.26694194    -0.01180
Br5242     Br  0.72380208  0.56862734  0.22430976    -0.01160
C5243       C  0.66190803  0.94092940  0.20366889    -0.02290
C5244       C  0.63585259  0.91681450  0.19699415     0.07390
C5245       C  0.61179219  0.92042388  0.19331992    -0.02400
C5246       C  0.61345625  0.94712995  0.19755274    -0.02400
C5247       C  0.64015385  0.97150135  0.20286766     0.07530
C5248       C  0.66466165  0.96836127  0.20427009    -0.02600
Br5249     Br  0.70275455  0.00159922  0.20537887    -0.01150
Br5250     Br  0.69374196  0.93747468  0.21412507    -0.01220
Br5251     Br  0.57842475  0.94914502  0.19771108    -0.01180
Br5252     Br  0.57537346  0.88826605  0.18472434    -0.01160
C5253       C  0.53388504  0.51667862  0.14449214    -0.02290
C5254       C  0.56347279  0.52555859  0.14499921     0.07390
C5255       C  0.57561940  0.51771242  0.12888654    -0.02400
C5256       C  0.55866362  0.50268873  0.11199505    -0.02400
C5257       C  0.53049726  0.49815535  0.11006540     0.07530
C5258       C  0.51754448  0.50324154  0.12702688    -0.02600
Br5259     Br  0.97653323  0.48816543  0.12733964    -0.01150
Br5260     Br  0.51535440  0.52164679  0.16800632    -0.01220
Br5261     Br  0.57347343  0.48656400  0.09255818    -0.01180
Br5262     Br  0.61595450  0.52900326  0.12917983    -0.01160
C5263       C  0.63709197  0.66921649  0.18508356    -0.02290
C5264       C  0.61317224  0.67106070  0.19215826     0.07390
C5265       C  0.58697808  0.64566551  0.19617866    -0.02400
C5266       C  0.58471797  0.61855777  0.19343233    -0.02400
C5267       C  0.60825134  0.61660625  0.18567485     0.07530
C5268       C  0.63457620  0.64203625  0.18171780    -0.02600
Br5269     Br  0.66673935  0.63969621  0.17064668    -0.01150
Br5270     Br  0.67243069  0.70376261  0.17794099    -0.01220
Br5271     Br  0.54957685  0.58415362  0.20102772    -0.01180
Br5272     Br  0.55389140  0.64799917  0.20500834    -0.01160
C5273       C  0.68214428  0.97849742  0.35258368    -0.02290
C5274       C  0.68024160  0.50343744  0.35708160     0.07390
C5275       C  0.65277447  0.00094561  0.35749110    -0.02400
C5276       C  0.62763111  0.97380433  0.35567563    -0.02400
C5277       C  0.62971942  0.94874001  0.35293622     0.07530
C5278       C  0.65713637  0.95118593  0.35197438    -0.02600
Br5279     Br  0.66063520  0.91695396  0.34990297    -0.01150
Br5280     Br  0.71769464  0.48106790  0.34366337    -0.01220
Br5281     Br  0.59051361  0.97164281  0.35517777    -0.01180
Br5282     Br  0.64968385  0.53503977  0.35531177    -0.01160
C5283       C  0.58948126  0.86794300  0.26830111    -0.02290
C5284       C  0.59231088  0.84326257  0.27049956     0.07390
C5285       C  0.58964313  0.83109160  0.28987549    -0.02400
C5286       C  0.58337790  0.84299221  0.30685821    -0.02400
C5287       C  0.58043414  0.86761900  0.30463343     0.07530
C5288       C  0.58329875  0.87993968  0.28527763    -0.02600
Br5289     Br  0.57901342  0.91346674  0.28209960    -0.01150
Br5290     Br  0.59550300  0.88626743  0.24223381    -0.01220
Br5291     Br  0.58087610  0.82668648  0.33342533    -0.01180
Br5292     Br  0.59802418  0.80035264  0.29362319    -0.01160
C5293       C  0.00107855  0.91676881  0.41382263    -0.02290
C5294       C  0.49870823  0.88930875  0.41523146     0.07390
C5295       C  0.49250761  0.87517414  0.43418484    -0.02400
C5296       C  0.48609860  0.88701866  0.45110101    -0.02400
C5297       C  0.98817661  0.91431365  0.44969191     0.07530
C5298       C  0.99678073  0.92963827  0.43118365    -0.02600
Br5299     Br  0.00124160  0.96765825  0.42922977    -0.01150
Br5300     Br  0.00827175  0.93607514  0.38793993    -0.01220
Br5301     Br  0.47460478  0.86558799  0.47622462    -0.01180
Br5302     Br  0.49385338  0.83995189  0.43722539    -0.01160
C5303       C  0.90006348  0.77657561  0.36213195    -0.02290
C5304       C  0.90114583  0.75079916  0.36261176     0.07390
C5305       C  0.92768622  0.75193949  0.36603789    -0.02400
C5306       C  0.95266179  0.77857252  0.36994484    -0.02400
C5307       C  0.95156726  0.80438624  0.36934130     0.07530
C5308       C  0.92533780  0.80332341  0.36479265    -0.02600
Br5309     Br  0.92401691  0.83858122  0.36179842    -0.01150
Br5310     Br  0.86391765  0.77542012  0.35816108    -0.01220
Br5311     Br  0.98767990  0.77923726  0.37781557    -0.01180
Br5312     Br  0.92941518  0.71676174  0.36734536    -0.01160
C5313       C  0.58837338  0.63705446  0.03451081    -0.02290
C5314       C  0.61629630  0.64140197  0.03128735     0.07390
C5315       C  0.61937997  0.61783952  0.02478077    -0.02400
C5316       C  0.59481074  0.59064087  0.02141737    -0.02400
C5317       C  0.56736026  0.58532540  0.02795474     0.07530
C5318       C  0.56447804  0.60897217  0.03463295    -0.02600
Br5319     Br  0.52834933  0.60402940  0.04443339    -0.01150
Br5320     Br  0.58247518  0.66969070  0.03804468    -0.01220
Br5321     Br  0.59980581  0.56115439  0.00817500    -0.01180
Br5322     Br  0.65693175  0.62114951  0.02249869    -0.01160
C5323       C  0.64795581  0.71561721  0.11604081    -0.02290
C5324       C  0.65379421  0.74447117  0.11625272     0.07390
C5325       C  0.66566541  0.76167848  0.09875937    -0.02400
C5326       C  0.67076391  0.74982842  0.08113981    -0.02400
C5327       C  0.66604163  0.72131523  0.08137344     0.07530
C5328       C  0.65613516  0.70496196  0.09934923    -0.02600
Br5329     Br  0.65455067  0.66812006  0.10145452    -0.01150
Br5330     Br  0.62651620  0.68929373  0.13758943    -0.01220
Br5331     Br  0.68191894  0.77213173  0.05635973    -0.01180
Br5332     Br  0.67189691  0.80048063  0.09804416    -0.01160
C5333       C  0.74001868  0.69808660  0.95730379    -0.02290
C5334       C  0.75166581  0.69652111  0.97609795     0.07390
C5335       C  0.76847202  0.68309004  0.97731818    -0.02400
C5336       C  0.77399520  0.67164335  0.95973016    -0.02400
C5337       C  0.76256113  0.67342682  0.94090884     0.07530
C5338       C  0.74547849  0.68659068  0.93976003    -0.02600
Br5339     Br  0.73214524  0.69175796  0.91383167    -0.01150
Br5340     Br  0.71816544  0.71777062  0.95531046    -0.01220
Br5341     Br  0.79760944  0.65391832  0.96132125    -0.01180
Br5342     Br  0.78411016  0.68073620  0.00308385    -0.01160
C5343       C  0.80679639  0.80524935  0.99947219    -0.02290
C5344       C  0.79246040  0.78696890  0.01598126     0.07390
C5345       C  0.80184227  0.79688079  0.03590609    -0.02400
C5346       C  0.82547214  0.82475199  0.03914072    -0.02400
C5347       C  0.84291528  0.84105279  0.02251464     0.07530
C5348       C  0.83276355  0.83113207  0.00254111    -0.02600
Br5349     Br  0.85274978  0.85278348  0.97869933    -0.01150
Br5350     Br  0.78996387  0.79562889  0.97258417    -0.01220
Br5351     Br  0.83164900  0.84024449  0.06632077    -0.01180
Br5352     Br  0.78385604  0.77184382  0.05897068    -0.01160
C5353       C  0.53375083  0.75566196  0.58262352    -0.02290
C5354       C  0.51140610  0.72649275  0.58250861     0.07390
C5355       C  0.50304739  0.71157096  0.60114462    -0.02400
C5356       C  0.52047104  0.72285503  0.61837506    -0.02400
C5357       C  0.54353861  0.75146310  0.61832812     0.07530
C5358       C  0.54780626  0.76869842  0.60098805    -0.02600
Br5359     Br  0.57041253  0.81011903  0.60255555    -0.01150
Br5360     Br  0.54621388  0.77777672  0.55784829    -0.01220
Br5361     Br  0.51091340  0.69952981  0.64246653    -0.01180
Br5362     Br  0.96539026  0.67851565  0.60435143    -0.01160
C5363       C  0.97835244  0.60551699  0.51448175    -0.02290
C5364       C  0.97413713  0.58748414  0.53140337     0.07390
C5365       C  0.97141788  0.59706574  0.55080134    -0.02400
C5366       C  0.96708800  0.62055068  0.55257061    -0.02400
C5367       C  0.97439198  0.64035975  0.53663460     0.07530
C5368       C  0.98051888  0.63286076  0.51736546    -0.02600
Br5369     Br  0.99265477  0.65993013  0.49517626    -0.01150
Br5370     Br  0.98392068  0.59424628  0.48781012    -0.01220
Br5371     Br  0.94548060  0.62159118  0.57535392    -0.01180
Br5372     Br  0.97667516  0.58127027  0.57568409    -0.01160
C5373       C  0.91145778  0.78497679  0.52221017    -0.02290
C5374       C  0.93604144  0.78181256  0.52286458     0.07390
C5375       C  0.96319253  0.80614338  0.52723749    -0.02400
C5376       C  0.96565557  0.83325160  0.53068601    -0.02400
C5377       C  0.94162082  0.83705387  0.52767199     0.07530
C5378       C  0.91435590  0.81256425  0.52374449    -0.02600
Br5379     Br  0.88042063  0.81609429  0.52078188    -0.01150
Br5380     Br  0.87354244  0.75134453  0.51971629    -0.01220
Br5381     Br  0.50268592  0.86505807  0.53870778    -0.01180
Br5382     Br  0.49796554  0.80357709  0.52654899    -0.01160
C5383       C  0.89559539  0.70927801  0.43715179    -0.02290
C5384       C  0.87611709  0.67915304  0.43637481     0.07390
C5385       C  0.87714459  0.66165357  0.45211503    -0.02400
C5386       C  0.89253001  0.67444288  0.47004760    -0.02400
C5387       C  0.91125152  0.70465549  0.47106238     0.07530
C5388       C  0.91429692  0.72154463  0.45378731    -0.02600
Br5389     Br  0.94508182  0.76128019  0.45237209    -0.01150
Br5390     Br  0.89823504  0.73424117  0.41519625    -0.01220
Br5391     Br  0.88513789  0.65017152  0.49362637    -0.01180
Br5392     Br  0.85880841  0.62019901  0.44952651    -0.01160
C5393       C  0.82054295  0.77442849  0.85400233    -0.02290
C5394       C  0.80876072  0.75345759  0.86942400     0.07390
C5395       C  0.80097018  0.76088195  0.88795772    -0.02400
C5396       C  0.79786175  0.78531730  0.88920083    -0.02400
C5397       C  0.80809856  0.80578348  0.87334458     0.07530
C5398       C  0.82033409  0.80062621  0.85592494    -0.02600
Br5399     Br  0.83884579  0.83012917  0.83548839    -0.01150
Br5400     Br  0.84342121  0.77032495  0.83317671    -0.01220
Br5401     Br  0.77914866  0.79023587  0.91278069    -0.01180
Br5402     Br  0.80167138  0.74256296  0.91287016    -0.01160
C5403       C  0.89424999  0.91416916  0.93264545    -0.02290
C5404       C  0.88182028  0.91727797  0.95065994     0.07390
C5405       C  0.85250387  0.90956762  0.95095761    -0.02400
C5406       C  0.83525876  0.89690452  0.93370470    -0.02400
C5407       C  0.84768787  0.89340943  0.91580592     0.07530
C5408       C  0.87743332  0.90306517  0.91512693    -0.02600
Br5409     Br  0.89522076  0.90109569  0.89007060    -0.01150
Br5410     Br  0.93444132  0.92519191  0.93181755    -0.01220
Br5411     Br  0.79430397  0.88234289  0.93511924    -0.01180
Br5412     Br  0.83542425  0.91428612  0.97541628    -0.01160
C5413       C  0.74459533  0.85010903  0.79386635    -0.02290
C5414       C  0.73799433  0.86551691  0.80826225     0.07390
C5415       C  0.71227021  0.86641182  0.80614984    -0.02400
C5416       C  0.69515529  0.85517019  0.78873584    -0.02400
C5417       C  0.70176859  0.83994553  0.77401768     0.07530
C5418       C  0.72584989  0.83615533  0.77741681    -0.02600
Br5419     Br  0.73445734  0.81274611  0.75960132    -0.01150
Br5420     Br  0.78044465  0.84979247  0.79568742    -0.01220
Br5421     Br  0.66266537  0.86123540  0.78578782    -0.01180
Br5422     Br  0.69943816  0.88207505  0.82753979    -0.01160
C5423       C  0.76402635  0.95616410  0.85602519    -0.02290
C5424       C  0.78777094  0.95644570  0.84663958     0.07390
C5425       C  0.80958179  0.98220087  0.83794618    -0.02400
C5426       C  0.80775037  0.50758825  0.83921200    -0.02400
C5427       C  0.78440279  0.50728863  0.84936513     0.07530
C5428       C  0.76109297  0.98067447  0.85529599    -0.02600
Br5429     Br  0.72300418  0.97520269  0.85492096    -0.01150
Br5430     Br  0.73541640  0.92237463  0.87017300    -0.01220
Br5431     Br  0.83316426  0.54060765  0.82322473    -0.01180
Br5432     Br  0.84149694  0.98244953  0.82422893    -0.01160
C5433       C  0.98925426  0.62127507  0.68278494    -0.02290
C5434       C  0.96203766  0.61923071  0.68425830     0.07390
C5435       C  0.96054278  0.64432549  0.68863233    -0.02400
C5436       C  0.98597845  0.67084443  0.69208514    -0.02400
C5437       C  0.51330828  0.67315004  0.68971237     0.07530
C5438       C  0.51450539  0.64836451  0.68347588    -0.02600
Br5439     Br  0.54926166  0.65084775  0.67272577    -0.01150
Br5440     Br  0.99231386  0.58682551  0.68041214    -0.01220
Br5441     Br  0.98302339  0.70489430  0.69640111    -0.01180
Br5442     Br  0.92399052  0.64339224  0.68801424    -0.01160
C5443       C  0.91810576  0.51389047  0.64045625    -0.02290
C5444       C  0.91209804  0.53633858  0.63712523     0.07390
C5445       C  0.90875374  0.54355978  0.61723562    -0.02400
C5446       C  0.91372088  0.52990945  0.60069222    -0.02400
C5447       C  0.92346607  0.51019318  0.60401205     0.07530
C5448       C  0.92389451  0.00079269  0.62387741    -0.02600
Br5449     Br  0.92805624  0.96767938  0.62813485    -0.01150
Br5450     Br  0.92218196  0.00304739  0.66779032    -0.01220
Br5451     Br  0.90384892  0.53545258  0.57380795    -0.01180
Br5452     Br  0.89664487  0.57152111  0.61295019    -0.01160
C5453       C  0.77142820  0.96646621  0.68492978    -0.02290
C5454       C  0.78624365  0.97398993  0.70361611     0.07390
C5455       C  0.77706904  0.95356346  0.71941365    -0.02400
C5456       C  0.75241578  0.92629625  0.71693169    -0.02400
C5457       C  0.73703387  0.91893105  0.69844344     0.07530
C5458       C  0.74722986  0.93881121  0.68221713    -0.02600
Br5459     Br  0.72757123  0.92882967  0.65646395    -0.01150
Br5460     Br  0.78313084  0.99459696  0.66339064    -0.01220
Br5461     Br  0.74071385  0.89878351  0.73881752    -0.01180
Br5462     Br  0.79877736  0.96265492  0.74438034    -0.01160
C5463       C  0.84992947  0.57407028  0.75839068    -0.02290
C5464       C  0.82971547  0.56602179  0.74248865     0.07390
C5465       C  0.80720211  0.57229771  0.74404691    -0.02400
C5466       C  0.80309361  0.58364134  0.76219822    -0.02400
C5467       C  0.82200953  0.58964594  0.77872369     0.07530
C5468       C  0.84689296  0.58722783  0.77601304    -0.02600
Br5469     Br  0.87738973  0.60232287  0.79593234    -0.01150
Br5470     Br  0.88055973  0.56498761  0.75700510    -0.01220
Br5471     Br  0.77321838  0.59364008  0.76353946    -0.01180
Br5472     Br  0.78239102  0.56598139  0.72109102    -0.01160
loop_ 
_geom_bond_atom_site_label_1 
_geom_bond_atom_site_label_2 
_geom_bond_distance 
_geom_bond_site_symmetry_2 
_ccdc_geom_bond_type 
C1            C2   1.402       .  A
C1            C6   1.398       .  A
C1         C1360   1.483       .  S
C2            C3   1.413       .  A
C2            H7   1.081       .  S
C3            C4   1.413       .  A
C3           C12   1.502       .  S
C4            C5   1.402       .  A
C4            H8   1.080   1_545  S
C5            C6   1.398       .  A
C5         C2718   1.482   1_545  S
C6            H9   1.084       .  S
C10          C11   1.398       .  A
C10          C15   1.394       .  A
C10        C1340   1.474       .  S
C11          C12   1.412       .  A
C11        H1384   1.080       .  S
C12          C13   1.415       .  A
C13          C14   1.405       .  A
C13          H17   1.081       .  S
C14          C15   1.401       .  A
C14        C1330   1.489       .  S
C15          H18   1.084       .  S
H16        C1379   1.080       .  S
C19          C20   1.398       .  A
C19          C24   1.407       .  A
C19        C1310   1.492       .  S
C20          C21   1.394       .  A
C20          H25   1.085       .  S
C21          C22   1.398       .  A
C21        C1320   1.477       .  S
C22          C23   1.419       .  A
C22          H26   1.077       .  S
C23          C24   1.419       .  A
C23          C32   1.513       .  S
C24          H27   1.079       .  S
C28          C29   1.391       .  A
C28          C33   1.400       .  A
C28        C1303   1.479       .  S
C29          C30   1.395       .  A
C29          H34   1.085       .  S
C30          C31   1.406       .  A
C30        C1293   1.486       .  S
C31          C32   1.421       .  A
C31          H35   1.079       .  S
C32          C33   1.418       .  A
C33          H36   1.078       .  S
C37          C38   1.406       .  A
C37          C42   1.401       .  A
C37        C1283   1.494       .  S
C38          C39   1.415       .  A
C38          H43   1.080       .  S
C39          C40   1.414       .  A
C39          C48   1.507       .  S
C40          C41   1.401       .  A
C40          H44   1.079       .  S
C41          C42   1.398       .  A
C41        C1270   1.489       .  S
C42          H45   1.083       .  S
C46          C47   1.401       .  A
C46          C51   1.404       .  A
C46        C3986   1.497       .  S
C47          C48   1.415       .  A
C47          H52   1.078       .  S
C48          C49   1.416       .  A
C49          C50   1.404       .  A
C49          H53   1.080       .  S
C50          C51   1.409       .  A
C50        C1263   1.498       .  S
C51          H54   1.084       .  S
C55          C56   1.401   1_556  A
C55          C60   1.395       .  A
C55        C1230   1.478       .  S
C56          C57   1.413       .  A
C56          H61   1.081       .  S
C57          C58   1.409       .  A
C57          C66   1.495       .  S
C58          C59   1.401       .  A
C58          H62   1.082       .  S
C59          C60   1.401   1_554  A
C59        C1240   1.485       .  S
C60          H63   1.084       .  S
C64          C65   1.401       .  A
C64          C69   1.399       .  A
C64        C1223   1.489       .  S
C65          C66   1.413       .  A
C65          H70   1.081       .  S
C66          C67   1.410       .  A
C67          C68   1.402       .  A
C67          H71   1.081       .  S
C68          C69   1.401       .  A
C68        C1210   1.492       .  S
C69          H72   1.083       .  S
C73          C74   1.405       .  A
C73        C2814   1.397   1_455  A
C73        C1190   1.488   1_455  S
C74          C75   1.420       .  A
C74          H79   1.077       .  S
C75          C76   1.417       .  A
C75          C86   1.516       .  S
C76        C2813   1.401   1_455  A
C76          H80   1.076       .  S
C77          C78   1.395       .  A
C77        C2812   1.401       .  A
C77        C1203   1.484       .  S
C78        C2809   1.397       .  A
C78          H81   1.085       .  S
C82          C83   1.392       .  A
C82          C87   1.402       .  A
C82        C1183   1.481       .  S
C83          C84   1.397       .  A
C83          H88   1.084       .  S
C84          C85   1.403       .  A
C84        C1173   1.485       .  S
C85          C86   1.418       .  A
C85          H89   1.077       .  S
C86          C87   1.420       .  A
C87          H90   1.077       .  S
C91          C92   1.400       .  A
C91          C96   1.403       .  A
C91        C1150   1.487       .  S
C92          C93   1.401       .  A
C92          H97   1.084       .  S
C93          C94   1.403       .  A
C93        C1163   1.483       .  S
C94          C95   1.414       .  A
C94          H98   1.079       .  S
C95          C96   1.416       .  A
C95         C104   1.509       .  S
C96        H1467   1.080       .  S
H99        C1464   1.080       .  S
C100        C101   1.401       .  A
C100        C105   1.402       .  A
C100       C1130   1.487       .  S
C101       C1470   1.403   1_545  A
C101        H106   1.084       .  S
C102       C1469   1.403       .  A
C102       C1471   1.402       .  A
C102       C1143   1.495       .  S
C103        C104   1.415       .  A
C103       C1470   1.402   1_545  A
C103        H107   1.080       .  S
C104        C105   1.417       .  A
C105        H108   1.078       .  S
C109        C110   1.395       .  A
C109        C114   1.393       .  A
C109       C1123   1.475       .  S
C110        C111   1.413       .  A
C110        H115   1.078       .  S
C111        C112   1.418       .  A
C111        C120   1.505       .  S
C112       C2849   1.408   1_455  A
C112       H2852   1.080       .  S
C113       C2848   1.408       .  A
C113       C2850   1.402       .  A
C113       C1113   1.497       .  S
C114       C2849   1.402   1_455  A
C114       H2853   1.084       .  S
H116       C2848   1.080       .  S
H117       C2850   1.084       .  S
C118        C119   1.403       .  A
C118        C123   1.401       .  A
C118       C1100   1.485       .  S
C119        C120   1.413       .  A
C119       H2860   1.081       .  S
C120        C121   1.415       .  A
C121        C122   1.399       .  A
C121        H125   1.078       .  S
C122        C123   1.396       .  A
C122       C1090   1.479       .  S
C123        H126   1.084       .  S
H124       C2855   1.081       .  S
C127        C128   1.402       .  A
C127        C132   1.396       .  A
C127       C1080   1.477       .  S
C128        C129   1.417       .  A
C128        H133   1.078       .  S
C129        C130   1.421       .  A
C129        C138   1.517       .  S
C130        C131   1.403       .  A
C130        H134   1.076       .  S
C131        C132   1.396       .  A
C131       C1073   1.483       .  S
C132        H135   1.084       .  S
C136        C137   1.395       .  A
C136        C141   1.400       .  A
C136       C1053   1.483       .  S
C137        C138   1.412       .  A
C137        H142   1.076       .  S
C138        C139   1.421       .  A
C139        C140   1.415       .  A
C139        H143   1.076       .  S
C140        C141   1.406       .  A
C140       C1060   1.518       .  S
C141        H144   1.081       .  S
C145        C146   1.399       .  A
C145        C150   1.397       .  A
C145       C1040   1.483       .  S
C146        C147   1.411       .  A
C146        H151   1.081       .  S
C147        C148   1.412       .  A
C147        C156   1.494       .  S
C148        C149   1.404       .  A
C148        H152   1.082       .  S
C149        C150   1.401       .  A
C149       C1030   1.491       .  S
C150        H153   1.084       .  S
C154        C155   1.402       .  A
C154        C159   1.399       .  A
C154       C1013   1.492       .  S
C155        C156   1.413       .  A
C155        H160   1.081       .  S
C156        C157   1.412       .  A
C157        C158   1.400       .  A
C157        H161   1.081       .  S
C158        C159   1.399       .  A
C158       C1020   1.489       .  S
C159        H162   1.083       .  S
C163        C164   1.404   1_556  A
C163        C168   1.397   1_556  A
C163       C2358   1.488       .  S
C164        C165   1.419       .  A
C164        H169   1.076   1_554  S
C165        C166   1.417       .  A
C165        C174   1.510       .  S
C166        C167   1.398       .  A
C166        H170   1.079       .  S
C167        C168   1.391       .  A
C167       C1003   1.475       .  S
C168        H171   1.085   1_554  S
C172        C173   1.401       .  A
C172        C177   1.398       .  A
C172        C980   1.489       .  S
C173        C174   1.417       .  A
C173        H178   1.079       .  S
C174        C175   1.417       .  A
C175        C176   1.402       .  A
C175        H179   1.077       .  S
C176        C177   1.395       .  A
C176        C970   1.486       .  S
C177        H180   1.084       .  S
C181        C182   1.396       .  A
C181        C186   1.396       .  A
C181        C953   1.481       .  S
C182        C183   1.403       .  A
C182        H187   1.083       .  S
C183        C184   1.405       .  A
C183        C960   1.492       .  S
C184        C185   1.411       .  A
C184        H188   1.082       .  S
C185        C186   1.410       .  A
C185        C192   1.492       .  S
C186       H2925   1.081       .  S
H189       C2922   1.081       .  S
C190        C191   1.403       .  A
C190        C195   1.400       .  A
C190        C940   1.491       .  S
C191        C192   1.412       .  A
C191        H196   1.082       .  S
C192        C193   1.411       .  A
C193       C2930   1.397   1_455  A
C193       H2933   1.081   1_455  S
C194       C2929   1.397       .  A
C194       C2931   1.397       .  A
C194        C933   1.485       .  S
C195       C2930   1.397   1_455  A
C195       H2934   1.083   1_455  S
H197       C2929   1.081       .  S
H198       C2931   1.083       .  S
C199        C200   1.403       .  A
C199        C204   1.397       .  A
C199        C910   1.482       .  S
C200        C201   1.415       .  A
C200        H205   1.079       .  S
C201        C202   1.416       .  A
C201        C210   1.506       .  S
C202        C203   1.403       .  A
C202        H206   1.081       .  S
C203        C204   1.398       .  A
C203        C920   1.486       .  S
C204        H207   1.084       .  S
C208        C209   1.406       .  A
C208       C1581   1.403   1_545  A
C208       C2258   1.495       .  S
C209        C210   1.414       .  A
C209        H214   1.080       .  S
C210        C211   1.414       .  A
C211       C1580   1.401   1_545  A
C211        H215   1.079       .  S
C212        C213   1.397       .  A
C212       C1579   1.401       .  A
C212        C903   1.481       .  S
C213       C1576   1.403       .  A
C213        H216   1.084       .  S
C217        C218   1.407       .  A
C217        C222   1.400       .  A
C217        C880   1.495       .  S
C218        C219   1.422       .  A
C218        H223   1.076       .  S
C219        C220   1.419       .  A
C219        C228   1.520       .  S
C220        C221   1.401       .  A
C220        H224   1.077       .  S
C221        C222   1.398       .  A
C221        C870   1.484       .  S
C222        H225   1.084       .  S
C226        C227   1.405       .  A
C226        C231   1.394       .  A
C226        C860   1.486       .  S
C227        C228   1.422       .  A
C227        H232   1.077       .  S
C228        C229   1.420       .  A
C229        C230   1.403       .  A
C229        H233   1.076       .  S
C230        C231   1.393       .  A
C230        C850   1.479       .  S
C231        H234   1.085       .  S
C235        C236   1.414       .  A
C235        C240   1.405       .  A
C235        C840   1.526       .  S
C236        C237   1.419       .  A
C236        H241   1.073       .  S
C237        C238   1.409       .  A
C237        C246   1.503       .  S
C238        C239   1.392       .  A
C238        H242   1.080       .  S
C239        C240   1.392       .  A
C239        C830   1.474       .  S
C240        H243   1.075       .  S
C244        C245   1.404       .  A
C244       C1617   1.401   1_545  A
C244        C820   1.493       .  S
C245        C246   1.416       .  A
C245        H250   1.080       .  S
C246        C247   1.411       .  A
C247       C1616   1.399   1_545  A
C247        H251   1.080       .  S
C248        C249   1.398       .  A
C248       C1615   1.399       .  A
C248        C810   1.483       .  S
C249       C1612   1.401       .  A
C249        H252   1.084       .  S
C253        C254   1.399       .  A
C253        C258   1.395       .  A
C253       C2161   1.483       .  S
C254        C255   1.419       .  A
C254        H259   1.075       .  S
C255        C256   1.421       .  A
C255        C264   1.520       .  S
C256        C257   1.407       .  A
C256        H260   1.076       .  S
C257        C258   1.401       .  A
C257        C803   1.490       .  S
C258        H261   1.084       .  S
C262        C263   1.405       .  A
C262        C267   1.394       .  A
C262        C770   1.478       .  S
C263        C264   1.420       .  A
C263        H268   1.077       .  S
C264        C265   1.419       .  A
C265        C266   1.399       .  A
C265        H269   1.075       .  S
C266        C267   1.391       .  A
C266        C780   1.475       .  S
C267        H270   1.085       .  S
C271        C272   1.396       .  A
C271        C276   1.395       .  A
C271        C753   1.480       .  S
C272        C273   1.415       .  A
C272        H277   1.077       .  S
C273        C274   1.418       .  A
C273        C282   1.510       .  S
C274        C275   1.409       .  A
C274        H278   1.079       .  S
C275        C276   1.402       .  A
C275        C763   1.499       .  S
C276        H279   1.084       .  S
C280        C281   1.405       .  A
C280        C285   1.395       .  A
C280        C740   1.480       .  S
C281        C282   1.419       .  A
C281        H286   1.080       .  S
C282        C283   1.417       .  A
C283        C284   1.399       .  A
C283        H287   1.078       .  S
C284        C285   1.390       .  A
C284        C730   1.475       .  S
C285        H288   1.085       .  S
C289        C290   1.408   1_556  A
C289        C294   1.400       .  A
C289        C723   1.501       .  S
C290        C291   1.421       .  A
C290        H295   1.075   1_554  S
C291        C292   1.413       .  A
C291        C300   1.513       .  S
C292        C293   1.398       .  A
C292        H296   1.079       .  S
C293        C294   1.396   1_554  A
C293        C710   1.481       .  S
C294        H297   1.084       .  S
C298        C299   1.412       .  A
C298        C303   1.406       .  A
C298       C3426   1.514       .  S
C299        C300   1.421       .  A
C299        H304   1.077       .  S
C300        C301   1.411       .  A
C301        C302   1.394       .  A
C301        H305   1.077       .  S
C302        C303   1.400       .  A
C302        C700   1.479       .  S
C303        H306   1.081       .  S
C307        C308   1.411       .  A
C307        C312   1.406       .  A
C307        C673   1.507       .  S
C308        C309   1.420       .  A
C308        H313   1.079       .  S
C309        C310   1.411       .  A
C309        C318   1.511       .  S
C310        C311   1.397       .  A
C310        H314   1.077       .  S
C311        C312   1.402       .  A
C311        C683   1.486       .  S
C312        H315   1.084       .  S
C316        C317   1.407   1_655  A
C316       C3057   1.402       .  A
C316       C3389   1.500       .  S
C317        C318   1.421       .  A
C317        H322   1.079       .  S
C318        C319   1.414       .  A
C319       C3056   1.399   1_455  A
C319        H323   1.079       .  S
C320        C321   1.402       .  A
C320       C3055   1.399       .  A
C320        C663   1.481       .  S
C321       C3052   1.402       .  A
C321        H324   1.084       .  S
O325       Zr361   2.451       .  S
O325        C336   1.294       .  A
O326       Zr360   2.469       .  S
O326        C337   1.296       .  A
O327       Zr333   2.468       .  S
O327        C338   1.298       .  A
O328       Zr333   2.485       .  S
O328        C339   1.302       .  A
O329       Zr363   2.409       .  S
O329        C339   1.287       .  A
O330       Zr362   2.429       .  S
O330        C338   1.289       .  A
O331       Zr333   2.410       .  S
O331        C337   1.284       .  A
O332       Zr333   2.426       .  S
O332        C336   1.289       .  A
Zr333       O334   2.331       .  S
Zr333       O335   2.330       .  S
Zr333       O343   2.345       .  S
Zr333       O341   2.339       .  S
O334       Zr360   2.321       .  S
O334       Zr363   2.351       .  S
O335       Zr361   2.332       .  S
O335       Zr362   2.345       .  S
C336       C1363   1.485       .  S
C337       C1110   1.497       .  S
C338       C1050   1.498       .  S
C339        C660   1.483       .  S
H340        O341   0.965       .  S
O341       Zr360   2.344       .  S
O341       Zr362   2.349       .  S
H342        O343   0.965       .  S
O343       Zr361   2.337       .  S
O343       Zr363   2.353       .  S
O344       Zr360   2.441       .  S
O344        C367   1.293       .  A
O345       Zr361   2.451       .  S
O345        C368   1.294       .  A
O346       Zr362   2.483       .  S
O346        C369   1.302       .  A
O347       Zr363   2.426       .  S
O347        C370   1.287       .  A
O348       Zr363   2.481       .  S
O348        C371   1.300       .  A
O349       Zr362   2.452       .  S
O349        C372   1.293       .  A
O350       Zr364   2.438       .  S
O350        C373   1.290       .  A
O351       Zr364   2.396       .  S
O351        C374   1.282       .  A
O352       Zr362   2.467       .  S
O352        C373   1.298       .  A
O353       Zr363   2.490       .  S
O353        C374   1.303       .  A
O354       Zr360   2.418       .  S
O354        C369   1.288       .  A
O355       Zr361   2.422       .  S
O355        C372   1.285       .  A
O356       Zr361   2.427       .  S
O356        C371   1.288       .  A
O357       Zr360   2.460       .  S
O357        C370   1.295       .  A
O358       Zr364   2.443       .  S
O358        C367   1.292       .  A
O359       Zr364   2.438       .  S
O359        C368   1.291       .  A
Zr360       O366   2.362       .  S
Zr360       O378   2.345       .  S
Zr361       O365   2.345       .  S
Zr361       O376   2.354       .  S
Zr362       O366   2.338       .  S
Zr362       O376   2.344       .  S
Zr363       O365   2.322       .  S
Zr363       O378   2.341       .  S
Zr364       O365   2.349       .  S
Zr364       O366   2.336       .  S
Zr364       O378   2.347       .  S
Zr364       O376   2.339       .  S
C367       C1233   1.476       .  S
C368       C1093   1.475       .  S
C369       C1290   1.486       .  S
C370        C720   1.507       .  S
C371       C1323   1.483       .  S
C372        C843   1.511       .  S
C373        C680   1.490       .  S
C374        C993   1.488       .  S
H375        O376   0.965       .  S
H377        O378   0.966       .  S
O379       Zr415   2.435   1_556  S
O379        C390   1.291       .  A
O380       Zr414   2.441       .  S
O380        C391   1.291       .  A
O381       Zr387   2.436       .  S
O381        C392   1.291       .  A
O382      Zr1755   2.438   1_546  S
O382        C393   1.292       .  A
O383      Zr1785   2.455   1_546  S
O383       C3129   1.294   1_455  A
O384       Zr416   2.449       .  S
O384        C392   1.294       .  A
O385      Zr1755   2.429   1_545  S
O385        C391   1.290       .  A
O386       Zr387   2.432   1_556  S
O386        C390   1.290       .  A
Zr387      O1750   2.438   1_554  S
Zr387      O1753   2.429       .  S
Zr387       O389   2.332       .  S
Zr387       O397   2.336   1_554  S
Zr387       O395   2.340       .  S
Zr387      O1756   2.332       .  S
O388       Zr414   2.340       .  S
O388      Zr1755   2.332   1_545  S
O388      Zr4521   2.330   1_545  S
O389       Zr415   2.335       .  S
O389       Zr416   2.341       .  S
C390       C1300   1.475       .  S
C391        C713   1.470       .  S
C392        C973   1.485       .  S
C393        C650   1.498       .  S
C393       O3119   1.294       .  A
H394        O395   0.965       .  S
O395       Zr416   2.348       .  S
O395      Zr1782   2.348       .  S
H396        O397   0.965       .  S
O397       Zr415   2.338   1_556  S
O397      Zr3153   2.336   1_556  S
O398      Zr3150   2.456   1_455  S
O398       C1789   1.296   1_545  A
O399       Zr415   2.438       .  S
O399        C422   1.291       .  A
O400       Zr416   2.461       .  S
O400        C423   1.297       .  A
O401      Zr1785   2.443   1_545  S
O401        C424   1.292       .  A
O402       Zr417   2.437   1_556  S
O402       C3161   1.292   1_455  A
O403       Zr416   2.451       .  S
O403        C426   1.293       .  A
O404       Zr418   2.433       .  S
O404        C427   1.291       .  A
O405      Zr3154   2.462   1_455  S
O405        C428   1.296       .  A
O406       Zr416   2.471       .  S
O406        C427   1.299       .  A
O407       Zr417   2.426       .  S
O407        C428   1.289       .  A
O408       Zr414   2.438       .  S
O408       C1791   1.290   1_545  A
O409       Zr415   2.431       .  S
O409        C426   1.290       .  A
O410       Zr415   2.439   1_556  S
O410        C425   1.292       .  A
O411      Zr3150   2.440   1_455  S
O411        C424   1.292       .  A
O412      Zr3154   2.442   1_455  S
O412        C421   1.292       .  A
O413       Zr418   2.450       .  S
O413        C422   1.294       .  A
Zr414      O3134   2.456       .  S
Zr414      O3147   2.440       .  S
Zr414      O1763   2.348   1_545  S
Zr414      O1788   2.339   1_545  S
Zr414      O4536   2.348   1_545  S
Zr415       O419   2.340       .  S
Zr415       O430   2.339       .  S
Zr416       O420   2.344       .  S
Zr416       O430   2.344       .  S
Zr417      O1751   2.455   1_554  S
Zr417      O1769   2.443       .  S
Zr417       O432   2.355       .  S
Zr417      O4492   2.330   1_455  S
Zr417      O3133   2.336   1_454  S
Zr417      O3155   2.350   1_455  S
Zr418      O3141   2.462       .  S
Zr418      O3148   2.442       .  S
Zr418       O419   2.341       .  S
Zr418       O420   2.350       .  S
Zr418       O430   2.347       .  S
Zr418      O3168   2.349       .  S
O419      Zr3153   2.350       .  S
O420      Zr1782   2.339       .  S
C421       C2521   1.489       .  S
C421       O1766   1.296       .  A
C422        C703   1.483       .  S
C423        C893   1.498       .  S
C423       O1776   1.290       .  A
C424       C1213   1.492       .  S
C425       C3839   1.483       .  S
C425       O3138   1.292       .  A
C426       C1243   1.498       .  S
C427        C743   1.486       .  S
C428       C1000   1.474       .  S
H429        O430   0.965       .  S
H431       O1800   0.966       .  S
O432      Zr4518   2.348   1_455  S
O432      Zr3154   2.349   1_455  S
O432       H1799   0.966       .  S
O433       Zr469   2.460       .  S
O433        C444   1.296       .  A
O434       Zr468   2.474       .  S
O434        C445   1.299       .  A
O435       Zr441   2.478       .  S
O435        C446   1.300       .  A
O436       Zr441   2.454       .  S
O436        C447   1.295       .  A
O437       Zr471   2.426       .  S
O437        C447   1.289       .  A
O438       Zr470   2.415       .  S
O438        C446   1.287       .  A
O439       Zr441   2.420       .  S
O439        C445   1.288       .  A
O440       Zr441   2.436       .  S
O440        C444   1.290       .  A
Zr441       O442   2.347       .  S
Zr441       O443   2.340       .  S
Zr441       O451   2.344       .  S
Zr441       O449   2.346       .  S
O442       Zr468   2.328       .  S
O442       Zr471   2.337       .  S
O443       Zr469   2.350       .  S
O443       Zr470   2.352       .  S
C444       C1280   1.497       .  S
C445        C853   1.479       .  S
C446        C790   1.481       .  S
C447        C930   1.485       .  S
H448        O449   0.966       .  S
O449       Zr468   2.346       .  S
O449       Zr470   2.343       .  S
H450        O451   0.965       .  S
O451       Zr469   2.341       .  S
O451       Zr471   2.341       .  S
O452       Zr468   2.445       .  S
O452        C475   1.293       .  A
O453       Zr469   2.458       .  S
O453        C476   1.295       .  A
O454       Zr470   2.489       .  S
O454        C477   1.302       .  A
O455       Zr471   2.447       .  S
O455        C478   1.293       .  A
O456       Zr471   2.441       .  S
O456        C479   1.292       .  A
O457       Zr470   2.456       .  S
O457        C480   1.296       .  A
O458       Zr472   2.459       .  S
O458        C481   1.295       .  A
O459       Zr472   2.449       .  S
O459        C482   1.295       .  A
O460       Zr470   2.418       .  S
O460        C481   1.285       .  A
O461       Zr471   2.422       .  S
O461        C482   1.288       .  A
O462       Zr468   2.399       .  S
O462        C477   1.283       .  A
O463       Zr469   2.430       .  S
O463        C480   1.290       .  A
O464       Zr469   2.438       .  S
O464        C479   1.292       .  A
O465       Zr468   2.435       .  S
O465        C478   1.291       .  A
O466       Zr472   2.442       .  S
O466        C475   1.293       .  A
O467       Zr472   2.437       .  S
O467        C476   1.292       .  A
Zr468       O474   2.348       .  S
Zr468       O486   2.341       .  S
Zr469       O473   2.341       .  S
Zr469       O484   2.344       .  S
Zr470       O474   2.332       .  S
Zr470       O484   2.344       .  S
Zr471       O473   2.340       .  S
Zr471       O486   2.338       .  S
Zr472       O473   2.346       .  S
Zr472       O474   2.339       .  S
Zr472       O486   2.345       .  S
Zr472       O484   2.335       .  S
C475       C1133   1.481       .  S
C476        C873   1.482       .  S
C477       C1170   1.492       .  S
C478        C913   1.484       .  S
C479       C1200   1.478       .  S
C480       C1043   1.478       .  S
C481        C963   1.500       .  S
C482        C750   1.478       .  S
H483        O484   0.965       .  S
H485        O486   0.966       .  S
O487       Zr523   2.447       .  S
O487        C498   1.293       .  A
O488       Zr522   2.460       .  S
O488        C499   1.296       .  A
O489       Zr495   2.446       .  S
O489        C500   1.293       .  A
O490       Zr495   2.440       .  S
O490        C501   1.292       .  A
O491       Zr525   2.442       .  S
O491        C501   1.291       .  A
O492       Zr524   2.433       .  S
O492        C500   1.291       .  A
O493       Zr495   2.427       .  S
O493        C499   1.289       .  A
O494       Zr495   2.434       .  S
O494        C498   1.291       .  A
Zr495       O496   2.342       .  S
Zr495       O497   2.340       .  S
Zr495       O505   2.339       .  S
Zr495       O503   2.342       .  S
O496       Zr522   2.347       .  S
O496       Zr525   2.341       .  S
O497       Zr523   2.342       .  S
O497       Zr524   2.347       .  S
C498       C1353   1.482       .  S
C499       C1120   1.475       .  S
C500        C813   1.481       .  S
C501       C1313   1.498       .  S
H502        O503   0.965       .  S
O503       Zr522   2.345       .  S
O503       Zr524   2.337       .  S
H504        O505   0.966       .  S
O505       Zr523   2.346       .  S
O505       Zr525   2.339       .  S
O506       Zr522   2.470       .  S
O506        C529   1.298       .  A
O507       Zr523   2.434       .  S
O507        C530   1.290       .  A
O508       Zr524   2.448       .  S
O508        C531   1.291       .  A
O509       Zr525   2.463       .  S
O509        C532   1.296       .  A
O510       Zr525   2.484       .  S
O510        C533   1.301       .  A
O511       Zr524   2.433       .  S
O511        C534   1.290       .  A
O512       Zr526   2.455       .  S
O512        C535   1.296       .  A
O513       Zr526   2.463       .  S
O513        C536   1.296       .  A
O514       Zr524   2.437       .  S
O514        C535   1.291       .  A
O515       Zr525   2.422       .  S
O515        C536   1.289       .  A
O516       Zr522   2.436       .  S
O516        C531   1.289       .  A
O517       Zr523   2.450       .  S
O517        C534   1.294       .  A
O518       Zr523   2.425       .  S
O518        C533   1.289       .  A
O519       Zr522   2.443       .  S
O519        C532   1.292       .  A
O520       Zr526   2.417       .  S
O520        C529   1.287       .  A
O521       Zr526   2.440       .  S
O521        C530   1.292       .  A
Zr522       O528   2.340       .  S
Zr522       O540   2.333       .  S
Zr523       O527   2.345       .  S
Zr523       O538   2.340       .  S
Zr524       O528   2.341       .  S
Zr524       O538   2.345       .  S
Zr525       O527   2.348       .  S
Zr525       O540   2.348       .  S
Zr526       O527   2.341       .  S
Zr526       O528   2.342       .  S
Zr526       O540   2.342       .  S
Zr526       O538   2.337       .  S
C529       C1333   1.493       .  S
C530       C1010   1.494       .  S
C531       C3799   1.511       .  S
C532        C670   1.506       .  S
C533       C1070   1.486       .  S
C534        C773   1.472       .  S
C535       C1253   1.487       .  S
C536        C833   1.472       .  S
H537        O538   0.965       .  S
H539        O540   0.965       .  S
O541       Zr577   2.433       .  S
O541        C552   1.291       .  A
O542       Zr576   2.444       .  S
O542        C553   1.292       .  A
O543       Zr549   2.422       .  S
O543        C554   1.288       .  A
O544       Zr549   2.440       .  S
O544        C555   1.290       .  A
O545       Zr579   2.428       .  S
O545        C555   1.288       .  A
O546       Zr578   2.462       .  S
O546        C554   1.297       .  A
O547       Zr549   2.454       .  S
O547        C553   1.295       .  A
O548       Zr549   2.457       .  S
O548        C552   1.296       .  A
Zr549       O550   2.342       .  S
Zr549       O551   2.341       .  S
Zr549       O559   2.335       .  S
Zr549       O557   2.349       .  S
O550       Zr576   2.338       .  S
O550       Zr579   2.335       .  S
O551       Zr577   2.345       .  S
O551       Zr578   2.342       .  S
C552       C1220   1.486       .  S
C553        C900   1.478       .  S
C554        C983   1.488       .  S
C555        C760   1.498       .  S
H556        O557   0.966       .  S
O557       Zr576   2.345       .  S
O557       Zr578   2.338       .  S
H558        O559   0.965       .  S
O559       Zr577   2.351       .  S
O559       Zr579   2.348       .  S
O560       Zr576   2.436       .  S
O560        C583   1.291       .  A
O561       Zr577   2.453       .  S
O561        C584   1.294       .  A
O562       Zr578   2.454       .  S
O562        C585   1.295       .  A
O563       Zr579   2.452       .  S
O563        C586   1.295       .  A
O564       Zr579   2.451       .  S
O564        C587   1.294       .  A
O565       Zr578   2.424       .  S
O565        C588   1.286       .  A
O566       Zr580   2.434       .  S
O566        C589   1.291       .  A
O567       Zr580   2.424       .  S
O567        C590   1.287       .  A
O568       Zr578   2.460       .  S
O568        C589   1.297       .  A
O569       Zr579   2.444       .  S
O569        C590   1.293       .  A
O570       Zr576   2.421       .  S
O570        C585   1.287       .  A
O571       Zr577   2.464       .  S
O571        C588   1.294       .  A
O572       Zr577   2.439       .  S
O572        C587   1.292       .  A
O573       Zr576   2.442       .  S
O573        C586   1.292       .  A
O574       Zr580   2.454       .  S
O574        C583   1.295       .  A
O575       Zr580   2.450       .  S
O575        C584   1.294       .  A
Zr576       O582   2.341       .  S
Zr576       O594   2.339       .  S
Zr577       O581   2.344       .  S
Zr577       O592   2.331       .  S
Zr578       O582   2.341       .  S
Zr578       O592   2.350       .  S
Zr579       O581   2.344       .  S
Zr579       O594   2.339       .  S
Zr580       O581   2.338       .  S
Zr580       O582   2.341       .  S
Zr580       O594   2.344       .  S
Zr580       O592   2.339       .  S
C583       C1180   1.477       .  S
C584       C3659   1.491       .  S
C585       C1140   1.491       .  S
C586        C883   1.488       .  S
C587       C1160   1.475       .  S
C588        C693   1.514       .  S
C589        C733   1.476       .  S
C590        C943   1.495       .  S
H591        O592   0.964       .  S
H593        O594   0.966       .  S
O595       Zr631   2.479       .  S
O595        C606   1.300   1_545  A
O596       Zr630   2.464       .  S
O596        C607   1.297       .  A
O597       Zr603   2.461       .  S
O597        C608   1.296       .  A
O598       Zr603   2.480       .  S
O598        C609   1.300       .  A
O599       Zr633   2.405       .  S
O599        C609   1.284       .  A
O600      Zr2000   2.428       .  S
O600        C608   1.290       .  A
O601       Zr603   2.407       .  S
O601        C607   1.284       .  A
O602       Zr603   2.417       .  S
O602       C1974   1.287       .  A
Zr603       O604   2.333       .  S
Zr603       O605   2.341       .  S
Zr603       O613   2.343       .  S
Zr603       O611   2.344       .  S
O604       Zr630   2.332       .  S
O604       Zr633   2.333       .  S
O605      Zr1999   2.347       .  S
O605      Zr2000   2.345       .  S
C606       C1343   1.480   1_565  S
C606       O1970   1.287       .  A
C607       C1023   1.491       .  S
C608        C800   1.484       .  S
C609       C1083   1.474       .  S
H610        O611   0.966       .  S
O611       Zr630   2.340       .  S
O611      Zr2000   2.349       .  S
H612        O613   0.966       .  S
O613       Zr633   2.349       .  S
O613      Zr1999   2.338       .  S
O614       Zr630   2.444       .  S
O614        C637   1.293       .  A
O615      Zr3367   2.458   1_455  S
O615        C638   1.296       .  A
O616      Zr2000   2.451       .  S
O616        C639   1.295       .  A
O617       Zr633   2.437       .  S
O617        C640   1.291       .  A
O618      Zr3369   2.423   1_455  S
O618       C2009   1.287       .  A
O619       Zr632   2.468   1_545  S
O619        C642   1.298       .  A
O620      Zr2002   2.440   1_545  S
O620        C643   1.292   1_455  A
O621       Zr634   2.434       .  S
O621        C644   1.290       .  A
O622       Zr632   2.433   1_545  S
O622       C3379   1.290       .  A
O623      Zr3369   2.439   1_455  S
O623        C644   1.291       .  A
O624       Zr630   2.439       .  S
O624        C639   1.293       .  A
O625       Zr631   2.426       .  S
O625        C642   1.289       .  A
O626      Zr3367   2.460   1_455  S
O626        C641   1.296   1_545  A
O627       Zr630   2.439       .  S
O627        C640   1.292       .  A
O628       Zr634   2.442       .  S
O628       C3373   1.292   1_455  A
O629      Zr2002   2.426   1_545  S
O629        C638   1.289       .  A
Zr630       O636   2.351       .  S
Zr630       O648   2.348       .  S
Zr631      O3351   2.458       .  S
Zr631      O3362   2.460       .  S
Zr631       O646   2.348       .  S
Zr631      O1973   2.347   1_545  S
Zr631      O1981   2.338   1_545  S
Zr631      O4739   2.339   1_545  S
Zr632      O1968   2.428       .  S
Zr632      O1984   2.451       .  S
Zr632       O646   2.336   1_565  S
Zr632      O1973   2.345       .  S
Zr632      O1979   2.349       .  S
Zr632      O2004   2.345       .  S
Zr633      O3354   2.423       .  S
Zr633      O3359   2.439       .  S
Zr633       O648   2.338       .  S
Zr633      O3371   2.330       .  S
Zr634      O1988   2.440       .  S
Zr634      O1997   2.426       .  S
Zr634       O635   2.343       .  S
Zr634      O3372   2.338   1_455  S
Zr634      O3384   2.345   1_455  S
Zr634      O4750   2.336   1_455  S
O635      Zr4735   2.339   1_455  S
O635      Zr3369   2.330   1_455  S
O636      Zr2000   2.345       .  S
O636      Zr3370   2.338       .  S
C637       C1193   1.481       .  S
C637       O3364   1.292       .  A
C638       C1033   1.491       .  S
C639        C863   1.483       .  S
C640       C1273   1.488       .  S
C641        C823   1.492       .  S
C641       O1986   1.287       .  A
C642       C1260   1.490       .  S
C643        C950   1.472   1_655  S
C643       O3358   1.290       .  A
C644        C783   1.469       .  S
H645       O3382   0.965       .  S
O646      Zr4738   2.336   1_545  S
O646       H3381   0.965       .  S
H647        O648   0.966       .  S
O648      Zr3370   2.345       .  S
C649        C654   1.416       .  A
C649       C3386   1.418   1_455  A
C649       Br656   1.934       .  S
C650        C651   1.417       .  A
C650       C3385   1.418       .  A
C651        C652   1.406       .  A
C651       Br658   1.932   1_545  S
C652        C653   1.411       .  A
C652       Br657   1.928       .  S
C653       C3390   1.416       .  A
C653       C3052   1.500       .  S
C654       C3389   1.416   1_455  A
C654       Br655   1.932       .  S
C659        C660   1.409       .  A
C659        C664   1.396       .  A
C659       Br666   1.922       .  S
C660        C661   1.414       .  A
C661        C662   1.415       .  A
C661       Br668   1.924       .  S
C662        C663   1.409       .  A
C662      Br3403   1.927       .  S
C663        C664   1.403       .  A
C664       Br665   1.927       .  S
Br667      C3398   1.927       .  S
C669        C670   1.425       .  A
C669        C674   1.416       .  A
C669       Br676   1.932       .  S
C670        C671   1.419       .  A
C671        C672   1.405       .  A
C671       Br678   1.935       .  S
C672        C673   1.411       .  A
C672       Br677   1.921       .  S
C673        C674   1.417       .  A
C674       Br675   1.934       .  S
C679        C680   1.412       .  A
C679        C684   1.411       .  A
C679       Br686   1.918       .  S
C680        C681   1.409       .  A
C681        C682   1.402       .  A
C681       Br688   1.913       .  S
C682        C683   1.406       .  A
C682       Br687   1.927       .  S
C683        C684   1.412       .  A
C684       Br685   1.928       .  S
C689        C690   1.419       .  A
C689        C694   1.404       .  A
C689       Br696   1.933       .  S
C690        C691   1.421       .  A
C690       C3034   1.514   1_455  S
C691        C692   1.416       .  A
C691      Br3434   1.936   1_455  S
C692        C693   1.424       .  A
C692       Br697   1.934       .  S
C693        C694   1.427       .  A
C694       Br695   1.948       .  S
Br698      C3427   1.936       .  S
C699        C700   1.406       .  A
C699        C704   1.401       .  A
C699      Br3442   1.932       .  S
C700        C701   1.405       .  A
C701        C702   1.412       .  A
C701       Br708   1.928       .  S
C702        C703   1.419       .  A
C702       Br707   1.927       .  S
C703        C704   1.409       .  A
C704      Br3441   1.923       .  S
Br705      C3440   1.923   1_455  S
Br706      C3435   1.932   1_455  S
C709        C710   1.416       .  A
C709        C714   1.408       .  A
C709       Br716   1.930       .  S
C710        C711   1.407       .  A
C711        C712   1.403       .  A
C711      Br3454   1.931   1_554  S
C712        C713   1.409       .  A
C712      Br3453   1.924   1_554  S
C713        C714   1.405       .  A
C714       Br715   1.930       .  S
Br717      C3448   1.924   1_556  S
Br718      C3447   1.931   1_456  S
C719        C720   1.422       .  A
C719        C724   1.402       .  A
C719       Br726   1.939       .  S
C720        C721   1.423       .  A
C721        C722   1.417       .  A
C721       Br728   1.936       .  S
C722        C723   1.417       .  A
C722       Br727   1.935       .  S
C723        C724   1.413       .  A
C724       Br725   1.938       .  S
C729        C730   1.404       .  A
C729        C734   1.404       .  A
C729       Br736   1.932       .  S
C730        C731   1.411       .  A
C731       C3468   1.408       .  A
C731       Br738   1.930       .  S
C732        C733   1.408       .  A
C732       C3467   1.408   1_455  A
C732       Br737   1.925       .  S
C733       C3470   1.410   1_455  A
C734       C3469   1.410       .  A
C734      Br3471   1.917       .  S
Br735      C3470   1.917   1_455  S
C739        C740   1.409       .  A
C739        C744   1.409       .  A
C739       Br746   1.931       .  S
C740        C741   1.409       .  A
C741        C742   1.405       .  A
C741       Br748   1.934       .  S
C742        C743   1.411       .  A
C742       Br747   1.919       .  S
C743        C744   1.410       .  A
C744       Br745   1.917       .  S
C749        C750   1.418       .  A
C749        C754   1.410       .  A
C749       Br756   1.932       .  S
C750        C751   1.410       .  A
C751        C752   1.399       .  A
C751       Br758   1.931       .  S
C752        C753   1.406       .  A
C752       Br757   1.927       .  S
C753        C754   1.407       .  A
C754       Br755   1.928       .  S
C759        C760   1.421       .  A
C759        C764   1.400       .  A
C759       Br766   1.944       .  S
C760        C761   1.424       .  A
C761        C762   1.414       .  A
C761       Br768   1.936       .  S
C762        C763   1.416       .  A
C762       Br767   1.935       .  S
C763        C764   1.412       .  A
C764       Br765   1.927       .  S
C769        C770   1.409       .  A
C769        C774   1.405       .  A
C769       Br776   1.930       .  S
C770        C771   1.409       .  A
C771        C772   1.408       .  A
C771       Br778   1.930       .  S
C772        C773   1.410       .  A
C772       Br777   1.930       .  S
C773        C774   1.408       .  A
C774       Br775   1.926       .  S
C779        C780   1.407       .  A
C779        C784   1.406       .  A
C779       Br786   1.929       .  S
C780        C781   1.409       .  A
C781        C782   1.406       .  A
C781      Br2156   1.929       .  S
C782        C783   1.410       .  A
C782      Br2155   1.934       .  S
C783        C784   1.407       .  A
C784       Br785   1.925       .  S
Br787      C2150   1.934   1_545  S
Br788      C2149   1.929       .  S
C789        C790   1.406       .  A
C789        C794   1.406       .  A
C789       Br796   1.922       .  S
C790        C791   1.412       .  A
C791       C2160   1.409       .  A
C791       Br798   1.928       .  S
C792       C2159   1.409       .  A
C792       C2161   1.410       .  A
C792       Br797   1.929       .  S
C793        C794   1.410       .  A
C793       C2160   1.410       .  A
C793       C1621   1.483   1_545  S
C794       Br795   1.926       .  S
C799        C800   1.415       .  A
C799        C804   1.413       .  A
C799       Br806   1.932       .  S
C800        C801   1.411       .  A
C801        C802   1.403       .  A
C801      Br2176   1.932       .  S
C802        C803   1.410       .  A
C802      Br2175   1.927       .  S
C803        C804   1.413       .  A
C804       Br805   1.931       .  S
Br807      C2170   1.927   1_545  S
Br808      C2169   1.932   1_545  S
C809        C810   1.414       .  A
C809        C814   1.408       .  A
C809       Br816   1.933       .  S
C810        C811   1.408       .  A
C811        C812   1.405       .  A
C811       Br818   1.934       .  S
C812        C813   1.413       .  A
C812       Br817   1.924       .  S
C813        C814   1.412       .  A
C814       Br815   1.933       .  S
C819        C820   1.417       .  A
C819        C824   1.412       .  A
C819       Br826   1.934       .  S
C820        C821   1.410   1_545  A
C821       C2190   1.404       .  A
C821      Br2196   1.937       .  S
C822       C2189   1.404       .  A
C822       C2191   1.420       .  A
C822       Br827   1.934       .  S
C823        C824   1.416   1_565  A
C823       C2190   1.420       .  A
C824       Br825   1.934       .  S
Br828      C2189   1.937       .  S
C829        C830   1.409       .  A
C829        C834   1.407       .  A
C829       Br836   1.930       .  S
C830        C831   1.407       .  A
C831        C832   1.402       .  A
C831       Br838   1.933       .  S
C832        C833   1.407       .  A
C832       Br837   1.918       .  S
C833        C834   1.412       .  A
C834       Br835   1.933       .  S
C839        C840   1.422       .  A
C839        C844   1.420       .  A
C839       Br846   1.940       .  S
C840        C841   1.413       .  A
C841        C842   1.394       .  A
C841       Br848   1.937       .  S
C842        C843   1.419       .  A
C842       Br847   1.936       .  S
C843        C844   1.433       .  A
C844       Br845   1.943       .  S
C849        C850   1.409       .  A
C849        C854   1.404       .  A
C849       Br856   1.933       .  S
C850        C851   1.410       .  A
C851       C2220   1.410       .  A
C851       Br858   1.929       .  S
C852        C853   1.410       .  A
C852       C2219   1.410   1_545  A
C852       Br857   1.924       .  S
C853       C2222   1.405   1_545  A
C854       C2221   1.405       .  A
C854       Br855   1.916       .  S
C859        C860   1.411       .  A
C859        C864   1.410       .  A
C859       Br866   1.932       .  S
C860        C861   1.411       .  A
C861        C862   1.406       .  A
C861       Br868   1.934       .  S
C862        C863   1.411       .  A
C862       Br867   1.926       .  S
C863        C864   1.413       .  A
C864       Br865   1.929       .  S
C869        C870   1.404       .  A
C869        C874   1.400       .  A
C869       Br876   1.926       .  S
C870        C871   1.411       .  A
C871        C872   1.415       .  A
C871       Br878   1.927       .  S
C872        C873   1.411       .  A
C872       Br877   1.924       .  S
C873        C874   1.408       .  A
C874       Br875   1.917       .  S
C879        C880   1.413       .  A
C879        C884   1.413       .  A
C879       Br886   1.931       .  S
C880        C881   1.412       .  A
C881        C882   1.405       .  A
C881       Br888   1.924       .  S
C882        C883   1.410       .  A
C882       Br887   1.927       .  S
C883        C884   1.415       .  A
C884       Br885   1.925       .  S
C889        C894   1.409       .  A
C889       C2258   1.416       .  A
C889       Br896   1.934       .  S
C890        C891   1.413       .  A
C890       C2257   1.416       .  A
C890       C1576   1.495       .  S
C891        C892   1.408       .  A
C891       Br898   1.932       .  S
C892        C893   1.416       .  A
C892       Br897   1.931       .  S
C893       C2262   1.418       .  A
C894       C2261   1.418   1_545  A
C894       Br895   1.934       .  S
C899        C900   1.410       .  A
C899        C904   1.407       .  A
C899       Br906   1.932       .  S
C900        C901   1.410       .  A
C901        C902   1.410       .  A
C901       Br908   1.923       .  S
C902        C903   1.407       .  A
C902       Br907   1.927       .  S
C903        C904   1.411       .  A
C904       Br905   1.931       .  S
C909        C910   1.407       .  A
C909        C914   1.406       .  A
C909       Br916   1.932       .  S
C910        C911   1.411       .  A
C911        C912   1.409       .  A
C911       Br918   1.932       .  S
C912        C913   1.413       .  A
C912       Br917   1.929       .  S
C913        C914   1.413       .  A
C914       Br915   1.923       .  S
C919        C920   1.408       .  A
C919        C924   1.406       .  A
C919       Br926   1.936       .  S
C920        C921   1.412       .  A
C921        C922   1.412       .  A
C921       Br928   1.932       .  S
C922        C923   1.413       .  A
C922       Br927   1.923       .  S
C923        C924   1.414       .  A
C923       C3320   1.491       .  S
C924      Br3661   1.919       .  S
Br925      C3660   1.919   1_455  S
C929        C930   1.416       .  A
C929        C934   1.401       .  A
C929       Br936   1.920       .  S
C930        C931   1.412       .  A
C931        C932   1.411       .  A
C931       Br938   1.934       .  S
C932        C933   1.417       .  A
C932       Br937   1.933       .  S
C933        C934   1.406       .  A
C934       Br935   1.938       .  S
C939        C940   1.415       .  A
C939        C944   1.413       .  A
C939       Br946   1.935       .  S
C940        C941   1.409       .  A
C941        C942   1.399       .  A
C941       Br948   1.937       .  S
C942        C943   1.421       .  A
C942       Br947   1.938       .  S
C943        C944   1.421       .  A
C944       Br945   1.937       .  S
C949        C950   1.410       .  A
C949        C954   1.405       .  A
C949       Br956   1.927       .  S
C950        C951   1.407   1_455  A
C951        C952   1.407   1_655  A
C951      Br5062   1.932       .  S
C952        C953   1.416       .  A
C952       Br957   1.933   1_455  S
C953        C954   1.409       .  A
C954       Br955   1.932       .  S
Br958      C5055   1.932       .  S
C959        C960   1.409       .  A
C959        C964   1.399       .  A
C959       Br966   1.938       .  S
C960        C961   1.416       .  A
C961        C962   1.414       .  A
C961       Br968   1.936       .  S
C962        C963   1.422       .  A
C962       Br967   1.936       .  S
C963        C964   1.423       .  A
C964       Br965   1.940       .  S
C969        C970   1.410       .  A
C969        C974   1.406       .  A
C969       Br976   1.934       .  S
C970        C971   1.414       .  A
C971        C972   1.409       .  A
C971      Br2346   1.934       .  S
C972        C973   1.413       .  A
C972      Br2345   1.931       .  S
C973        C974   1.412       .  A
C974       Br975   1.922       .  S
Br977      C2340   1.931   1_545  S
Br978      C2339   1.934   1_545  S
C979        C980   1.409       .  A
C979        C984   1.402       .  A
C979       Br986   1.933       .  S
C980        C981   1.415       .  A
C981        C982   1.411       .  A
C981       Br988   1.934       .  S
C982        C983   1.414       .  A
C982       Br987   1.929       .  S
C983        C984   1.416       .  A
C984       Br985   1.931       .  S
C989       C2358   1.411       .  A
C989       C2362   1.398       .  A
C989       Br996   1.935       .  S
C990        C991   1.414       .  A
C990       C2357   1.411       .  A
C990       C1531   1.488   1_545  S
C991        C992   1.413       .  A
C991       Br998   1.932       .  S
C992        C993   1.411       .  A
C992       Br997   1.919       .  S
C993        C994   1.416       .  A
C994       C2357   1.398       .  A
C994      Br2363   1.938       .  S
Br995      C2362   1.938       .  S
C999       C1000   1.408       .  A
C999       C1004   1.407       .  A
C999      Br2374   1.923       .  S
C1000      C1001   1.408       .  A
C1001      C1002   1.404       .  A
C1001     Br1008   1.924   1_554  S
C1002      C1003   1.408       .  A
C1002     Br1007   1.930   1_554  S
C1003      C1004   1.408       .  A
C1004     Br2373   1.929       .  S
Br1005     C2372   1.929   1_545  S
Br1006     C2367   1.923   1_545  S
C1009      C1010   1.419       .  A
C1009      C1014   1.401       .  A
C1009     Br1016   1.935       .  S
C1010      C1011   1.421       .  A
C1011      C1012   1.412       .  A
C1011     Br1018   1.938       .  S
C1012      C1013   1.416       .  A
C1012     Br1017   1.935       .  S
C1013      C1014   1.410       .  A
C1014     Br1015   1.936       .  S
C1019      C1020   1.408       .  A
C1019      C1024   1.402       .  A
C1019     Br1026   1.938       .  S
C1020      C1021   1.417       .  A
C1021      C1022   1.412       .  A
C1021     Br1028   1.933       .  S
C1022      C1023   1.415       .  A
C1022     Br1027   1.934       .  S
C1023      C1024   1.422       .  A
C1024     Br1025   1.935       .  S
C1029      C1030   1.416       .  A
C1029      C1034   1.412       .  A
C1029     Br1036   1.935       .  S
C1030      C1031   1.410       .  A
C1031      C1032   1.403       .  A
C1031     Br1038   1.937       .  S
C1032      C1033   1.419       .  A
C1032     Br1037   1.934       .  S
C1033      C1034   1.417       .  A
C1034     Br1035   1.935       .  S
C1039      C1040   1.414       .  A
C1039      C1044   1.408       .  A
C1039     Br1046   1.933       .  S
C1040      C1041   1.410       .  A
C1041      C1042   1.405       .  A
C1041     Br1048   1.934       .  S
C1042      C1043   1.410       .  A
C1042     Br1047   1.924       .  S
C1043      C1044   1.411       .  A
C1044     Br1045   1.931       .  S
C1049      C1050   1.424       .  A
C1049      C1054   1.412       .  A
C1049     Br1056   1.926       .  S
C1050      C1051   1.416       .  A
C1051      C1052   1.401       .  A
C1051     Br1058   1.920       .  S
C1052      C1053   1.403       .  A
C1052     Br1057   1.931       .  S
C1053      C1054   1.406       .  A
C1054     Br1055   1.929       .  S
C1059      C1060   1.421       .  A
C1059      C1064   1.414       .  A
C1059     Br1066   1.935       .  S
C1060      C1061   1.421       .  A
C1061      C1062   1.403       .  A
C1061     Br1068   1.928       .  S
C1062      C1063   1.422       .  A
C1062     Br1067   1.944       .  S
C1063      C1064   1.425       .  A
C1063      C3267   1.511       .  S
C1064     Br3801   1.936       .  S
Br1065     C3800   1.936   1_455  S
C1069      C1070   1.410       .  A
C1069      C1074   1.413       .  A
C1069     Br1076   1.924       .  S
C1070      C1071   1.412       .  A
C1071      C1072   1.406       .  A
C1071     Br1078   1.917       .  S
C1072      C1073   1.405       .  A
C1072     Br1077   1.932       .  S
C1073      C1074   1.411       .  A
C1074     Br1075   1.928       .  S
C1079      C1080   1.409       .  A
C1079      C1084   1.408       .  A
C1079     Br1086   1.927       .  S
C1080      C1081   1.408       .  A
C1081      C1082   1.406       .  A
C1081     Br1088   1.927       .  S
C1082      C1083   1.407       .  A
C1082     Br1087   1.927       .  S
C1083      C1084   1.407       .  A
C1084     Br1085   1.926       .  S
C1089      C1090   1.407       .  A
C1089      C1094   1.409       .  A
C1089     Br1096   1.927       .  S
C1090      C1091   1.410       .  A
C1091      C2460   1.406       .  A
C1091     Br1098   1.931       .  S
C1092      C1093   1.406       .  A
C1092      C2459   1.406   1_545  A
C1092     Br1097   1.924       .  S
C1093      C2462   1.413   1_545  A
C1094      C2461   1.413       .  A
C1094     Br1095   1.932       .  S
C1099      C1100   1.413       .  A
C1099      C1104   1.409       .  A
C1099     Br1106   1.933       .  S
C1100      C1101   1.410       .  A
C1101      C1102   1.405       .  A
C1101     Br1108   1.933       .  S
C1102      C1103   1.414       .  A
C1102     Br3843   1.933       .  S
C1103      C1104   1.415       .  A
C1103      C3161   1.483   1_455  S
C1104     Br1105   1.935   1_455  S
Br1107     C3838   1.933       .  S
C1109      C1110   1.422       .  A
C1109      C1114   1.401       .  A
C1109     Br1116   1.942       .  S
C1110      C1111   1.420       .  A
C1111      C1112   1.415       .  A
C1111     Br1118   1.933       .  S
C1112      C1113   1.417       .  A
C1112     Br1117   1.935       .  S
C1113      C1114   1.412       .  A
C1114     Br1115   1.935       .  S
C1119      C1120   1.411       .  A
C1119      C1124   1.406       .  A
C1119     Br1126   1.918       .  S
C1120      C1121   1.407       .  A
C1121      C1122   1.406       .  A
C1121     Br1128   1.927       .  S
C1122      C1123   1.411       .  A
C1122     Br1127   1.929       .  S
C1123      C1124   1.403       .  A
C1124     Br1125   1.929       .  S
C1129      C1130   1.411       .  A
C1129      C1134   1.413       .  A
C1129     Br1136   1.928       .  S
C1130      C1131   1.408       .  A
C1131      C1132   1.402       .  A
C1131     Br1138   1.926       .  S
C1132      C1133   1.408       .  A
C1132     Br1137   1.927       .  S
C1133      C1134   1.414       .  A
C1134     Br1135   1.927       .  S
C1139      C1140   1.417       .  A
C1139      C1144   1.400       .  A
C1139     Br1146   1.935       .  S
C1140      C1141   1.418       .  A
C1141      C1142   1.414       .  A
C1141     Br1148   1.933       .  S
C1142      C1143   1.417       .  A
C1142     Br1147   1.934       .  S
C1143      C1144   1.409       .  A
C1144     Br1145   1.925       .  S
C1149      C1150   1.410       .  A
C1149      C1154   1.408       .  A
C1149     Br1156   1.926       .  S
C1150      C1151   1.412       .  A
C1151      C1152   1.409       .  A
C1151     Br1158   1.932       .  S
C1152      C1153   1.410   1_545  A
C1152     Br1157   1.921   1_545  S
C1153      C1154   1.410   1_565  A
C1153      C1789   1.489       .  S
C1154     Br3891   1.926   1_445  S
Br1155     C3890   1.926   1_565  S
C1159      C1160   1.412       .  A
C1159      C1164   1.409       .  A
C1159     Br1166   1.929       .  S
C1160      C1161   1.407       .  A
C1161      C1162   1.405       .  A
C1161     Br1168   1.927       .  S
C1162      C1163   1.411       .  A
C1162     Br1167   1.928       .  S
C1163      C1164   1.411       .  A
C1164     Br1165   1.931       .  S
C1169      C1174   1.406       .  A
C1169      C2538   1.419       .  A
C1169     Br2544   1.930       .  S
C1170      C2537   1.419   1_545  A
C1170      C2539   1.410       .  A
C1171      C1172   1.408       .  A
C1171      C2538   1.410       .  A
C1171     Br2546   1.918       .  S
C1172      C1173   1.412       .  A
C1172     Br1177   1.935       .  S
C1173      C1174   1.410       .  A
C1174     Br1175   1.937       .  S
Br1176     C2537   1.930       .  S
Br1178     C2539   1.918       .  S
C1179      C1180   1.410       .  A
C1179      C1184   1.408       .  A
C1179     Br1186   1.924       .  S
C1180      C1181   1.409       .  A
C1181      C1182   1.407       .  A
C1181     Br1188   1.926       .  S
C1182      C1183   1.411       .  A
C1182     Br1187   1.932       .  S
C1183      C1184   1.409       .  A
C1184     Br1185   1.931       .  S
C1189      C1194   1.411       .  A
C1189      C3926   1.413       .  A
C1189     Br1196   1.931       .  S
C1190      C1191   1.411       .  A
C1190      C3925   1.413   1_655  A
C1191      C1192   1.405       .  A
C1191     Br1198   1.932       .  S
C1192      C3929   1.411       .  A
C1192     Br1197   1.931       .  S
C1193      C1194   1.412       .  A
C1193      C3928   1.411       .  A
C1194     Br1195   1.930       .  S
C1199      C1200   1.410       .  A
C1199      C1204   1.406       .  A
C1199     Br1206   1.926       .  S
C1200      C1201   1.412       .  A
C1201      C1202   1.408       .  A
C1201     Br1208   1.932       .  S
C1202      C1203   1.412       .  A
C1202     Br1207   1.932       .  S
C1203      C1204   1.412       .  A
C1204     Br1205   1.933       .  S
C1209      C1210   1.410       .  A
C1209      C1214   1.405       .  A
C1209     Br1216   1.937       .  S
C1210      C1211   1.417       .  A
C1211      C1212   1.409       .  A
C1211     Br1218   1.936       .  S
C1212      C1213   1.417       .  A
C1212     Br1217   1.933       .  S
C1213      C1214   1.418       .  A
C1214     Br1215   1.928       .  S
C1219      C1220   1.414       .  A
C1219      C1224   1.404       .  A
C1219     Br1226   1.923       .  S
C1220      C1221   1.412       .  A
C1221      C1222   1.412       .  A
C1221     Br1228   1.932       .  S
C1222      C1223   1.416       .  A
C1222     Br1227   1.933       .  S
C1223      C1224   1.409       .  A
C1224     Br1225   1.935       .  S
C1229      C1230   1.410       .  A
C1229      C1234   1.406       .  A
C1229     Br1236   1.932       .  S
C1230      C1231   1.408       .  A
C1231      C1232   1.408       .  A
C1231     Br1238   1.928   1_556  S
C1232      C1233   1.410       .  A
C1232     Br1237   1.927       .  S
C1233      C1234   1.409       .  A
C1234     Br1235   1.927       .  S
C1239      C1240   1.406   1_556  A
C1239      C1244   1.403   1_556  A
C1239     Br1246   1.940       .  S
C1240      C1241   1.412       .  A
C1241      C1242   1.409       .  A
C1241     Br1248   1.934       .  S
C1242      C1243   1.420       .  A
C1242     Br1247   1.931       .  S
C1243      C1244   1.423       .  A
C1244     Br1245   1.927   1_554  S
C1249      C1250   1.415       .  A
C1249      C1254   1.413       .  A
C1249     Br1256   1.929       .  S
C1250      C1251   1.410       .  A
C1250      C2782   1.497   1_455  S
C1251      C1252   1.403       .  A
C1251     Br3994   1.917   1_455  S
C1252      C1253   1.407       .  A
C1252     Br1257   1.925       .  S
C1253      C1254   1.414       .  A
C1254     Br1255   1.925       .  S
Br1258     C3987   1.917       .  S
C1259      C1260   1.418       .  A
C1259      C1264   1.421       .  A
C1259     Br1266   1.928       .  S
C1260      C1261   1.411       .  A
C1261      C1262   1.392       .  A
C1261     Br1268   1.931       .  S
C1262      C1263   1.402       .  A
C1262     Br1267   1.911       .  S
C1263      C1264   1.417       .  A
C1264     Br1265   1.929       .  S
C1269      C1270   1.411       .  A
C1269      C1274   1.408       .  A
C1269     Br1276   1.934       .  S
C1270      C1271   1.415       .  A
C1271      C1272   1.407       .  A
C1271     Br4014   1.937       .  S
C1272      C1273   1.416       .  A
C1272     Br4013   1.934       .  S
C1273      C1274   1.417       .  A
C1274     Br1275   1.931       .  S
Br1277     C4008   1.934   1_455  S
Br1278     C4007   1.937       .  S
C1279      C1280   1.417       .  A
C1279      C1284   1.409       .  A
C1279     Br1286   1.927       .  S
C1280      C1281   1.418       .  A
C1281      C1282   1.409       .  A
C1281     Br1288   1.933       .  S
C1282      C1283   1.415       .  A
C1282     Br1287   1.936       .  S
C1283      C1284   1.412       .  A
C1284     Br1285   1.935       .  S
C1289      C1290   1.408       .  A
C1289      C1294   1.413       .  A
C1289     Br1296   1.922       .  S
C1290      C1291   1.409       .  A
C1291      C1292   1.400       .  A
C1291     Br1298   1.924       .  S
C1292      C1293   1.411       .  A
C1292     Br1297   1.935       .  S
C1293      C1294   1.414       .  A
C1294     Br1295   1.930       .  S
C1299      C1300   1.409       .  A
C1299      C1304   1.403       .  A
C1299     Br1306   1.929       .  S
C1300      C1301   1.411       .  A
C1301      C1302   1.409       .  A
C1301     Br1308   1.929       .  S
C1302      C1303   1.410       .  A
C1302     Br1307   1.930       .  S
C1303      C1304   1.410       .  A
C1304     Br1305   1.933       .  S
C1309      C1310   1.411       .  A
C1309      C1314   1.413       .  A
C1309     Br1316   1.934       .  S
C1310      C1311   1.411       .  A
C1311      C1312   1.405       .  A
C1311     Br1318   1.931       .  S
C1312      C1313   1.419       .  A
C1312     Br1317   1.935       .  S
C1313      C1314   1.422       .  A
C1314     Br1315   1.931       .  S
C1319      C1320   1.407       .  A
C1319      C1324   1.398       .  A
C1319     Br1326   1.927       .  S
C1320      C1321   1.408       .  A
C1321      C2690   1.412       .  A
C1321     Br1328   1.926       .  S
C1322      C1323   1.410       .  A
C1322      C2689   1.412   1_545  A
C1322     Br1327   1.918       .  S
C1323      C2692   1.401   1_545  A
C1324      C2691   1.401       .  A
C1324     Br1325   1.912       .  S
C1329      C1330   1.410       .  A
C1329      C4070   1.404       .  A
C1329     Br1336   1.936       .  S
C1330      C1331   1.414       .  A
C1331      C1332   1.411       .  A
C1331     Br1338   1.935       .  S
C1332      C4069   1.415       .  A
C1332     Br1337   1.927       .  S
C1333      C1334   1.419       .  A
C1333      C4068   1.415   1_455  A
C1334      C4065   1.404   1_455  A
C1334     Br1335   1.933       .  S
C1339      C1340   1.408       .  A
C1339      C2712   1.405       .  A
C1339     Br2714   1.930       .  S
C1340      C1341   1.405       .  A
C1341      C1342   1.408       .  A
C1341     Br1348   1.927       .  S
C1342      C1343   1.409       .  A
C1342     Br1347   1.917       .  S
C1343      C2712   1.405       .  A
C1344      C2707   1.405       .  A
C1344      C2711   1.406       .  A
C1344     Br1345   1.915       .  S
Br1346     C2707   1.931       .  S
C1349      C1350   1.412       .  A
C1349      C1354   1.409       .  A
C1349     Br1356   1.932       .  S
C1350      C1351   1.408       .  A
C1350      C1373   1.482       .  S
C1351      C1352   1.405       .  A
C1351     Br1358   1.935       .  S
C1352      C1353   1.414       .  A
C1352     Br1357   1.929       .  S
C1353      C1354   1.412       .  A
C1354     Br1355   1.929       .  S
C1359      C1360   1.413       .  A
C1359      C1364   1.408       .  A
C1359     Br1366   1.933       .  S
C1360      C1361   1.409       .  A
C1361      C1362   1.406       .  A
C1361     Br1368   1.932       .  S
C1362      C1363   1.414       .  A
C1362     Br1367   1.927       .  S
C1363      C1364   1.414       .  A
C1364     Br1365   1.934       .  S
C1369      C1370   1.402       .  A
C1369      C1374   1.398       .  A
C1369      C2728   1.483       .  S
C1370      C1371   1.413       .  A
C1370      H1375   1.081       .  S
C1371      C1372   1.413       .  A
C1371      C1380   1.501       .  S
C1372      C1373   1.401       .  A
C1372      H1376   1.080       .  S
C1373      C1374   1.398       .  A
C1374      H1377   1.084       .  S
C1378      C1379   1.398       .  A
C1378      C1383   1.394       .  A
C1378      C2708   1.475       .  S
C1379      C1380   1.412       .  A
C1380      C1381   1.415       .  A
C1381      C1382   1.405       .  A
C1381      H1385   1.081       .  S
C1382      C1383   1.401       .  A
C1382      C2698   1.490       .  S
C1383      H1386   1.084       .  S
C1387      C1388   1.398       .  A
C1387      C1392   1.407       .  A
C1387      C2678   1.492       .  S
C1388      C1389   1.394       .  A
C1388      H1393   1.085       .  S
C1389      C1390   1.398       .  A
C1389      C2688   1.477       .  S
C1390      C1391   1.419       .  A
C1390      H1394   1.077       .  S
C1391      C1392   1.419       .  A
C1391      C1400   1.513       .  S
C1392      H1395   1.079       .  S
C1396      C1397   1.391       .  A
C1396      C1401   1.400       .  A
C1396      C2671   1.479       .  S
C1397      C1398   1.395       .  A
C1397      H1402   1.085       .  S
C1398      C1399   1.406       .  A
C1398      C2661   1.486       .  S
C1399      C1400   1.421       .  A
C1399      H1403   1.079       .  S
C1400      C1401   1.418       .  A
C1401      H1404   1.078       .  S
C1405      C1406   1.406       .  A
C1405      C1410   1.401       .  A
C1405      C2651   1.494       .  S
C1406      C1407   1.415       .  A
C1406      H1411   1.080       .  S
C1407      C1408   1.414       .  A
C1407      C1416   1.507       .  S
C1408      C1409   1.401       .  A
C1408      H1412   1.079       .  S
C1409      C1410   1.398       .  A
C1409      C2638   1.489       .  S
C1410      H1413   1.083       .  S
C1414      C1415   1.401       .  A
C1414      C1419   1.404       .  A
C1414      C5354   1.497       .  S
C1415      C1416   1.415       .  A
C1415      H1420   1.078       .  S
C1416      C1417   1.416       .  A
C1417      C1418   1.404       .  A
C1417      H1421   1.080       .  S
C1418      C1419   1.409       .  A
C1418      C2631   1.498       .  S
C1419      H1422   1.084       .  S
C1423      C1424   1.401   1_556  A
C1423      C1428   1.395       .  A
C1423      C2598   1.478       .  S
C1424      C1425   1.413       .  A
C1424      H1429   1.081       .  S
C1425      C1426   1.409       .  A
C1425      C1434   1.495       .  S
C1426      C1427   1.401       .  A
C1426      H1430   1.082       .  S
C1427      C1428   1.401   1_554  A
C1427      C2608   1.485       .  S
C1428      H1431   1.084       .  S
C1432      C1433   1.401       .  A
C1432      C1437   1.399       .  A
C1432      C2591   1.489       .  S
C1433      C1434   1.413       .  A
C1433      H1438   1.081       .  S
C1434      C1435   1.410       .  A
C1435      C1436   1.402       .  A
C1435      H1439   1.081       .  S
C1436      C1437   1.401       .  A
C1436      C2578   1.492       .  S
C1437      H1440   1.083       .  S
C1441      C1442   1.405       .  A
C1441      C4182   1.397   1_455  A
C1441      C2558   1.488   1_455  S
C1442      C1443   1.420       .  A
C1442      H1447   1.077       .  S
C1443      C1444   1.417       .  A
C1443      C1454   1.516       .  S
C1444      C4181   1.401   1_455  A
C1444      H1448   1.076       .  S
C1445      C4180   1.401       .  A
C1445      C1446   1.395       .  A
C1445      C2571   1.484       .  S
C1446      C4177   1.397       .  A
C1446      H1449   1.085       .  S
C1450      C1451   1.392       .  A
C1450      C1455   1.402       .  A
C1450      C2551   1.481       .  S
C1451      C1452   1.397       .  A
C1451      H1456   1.084       .  S
C1452      C1453   1.403       .  A
C1452      C2541   1.485       .  S
C1453      C1454   1.418       .  A
C1453      H1457   1.077       .  S
C1454      C1455   1.420       .  A
C1455      H1458   1.077       .  S
C1459      C1460   1.400       .  A
C1459      C1464   1.403       .  A
C1459      C2518   1.487       .  S
C1460      C1461   1.401       .  A
C1460      H1465   1.084       .  S
C1461      C1462   1.403       .  A
C1461      C2531   1.483       .  S
C1462      C1463   1.414       .  A
C1462      H1466   1.079       .  S
C1463      C1464   1.416       .  A
C1463      C1472   1.509       .  S
C1468      C1469   1.401       .  A
C1468      C1473   1.402       .  A
C1468      C2498   1.487       .  S
C1469      H1474   1.084       .  S
C1470      C2511   1.495       .  S
C1471      C1472   1.415       .  A
C1471      H1475   1.080       .  S
C1472      C1473   1.417       .  A
C1473      H1476   1.078       .  S
C1477      C1478   1.395       .  A
C1477      C1482   1.393       .  A
C1477      C2491   1.475       .  S
C1478      C1479   1.413       .  A
C1478      H1483   1.078       .  S
C1479      C1480   1.418       .  A
C1479      C1488   1.505       .  S
C1480      C4217   1.408   1_455  A
C1480      H4220   1.080       .  S
C1481      C4216   1.408       .  A
C1481      C4218   1.402       .  A
C1481      C2481   1.497       .  S
C1482      C4217   1.402   1_455  A
C1482      H4221   1.084       .  S
H1484      C4216   1.080       .  S
H1485      C4218   1.084       .  S
C1486      C1487   1.403       .  A
C1486      C1491   1.401       .  A
C1486      C2468   1.485       .  S
C1487      C1488   1.413       .  A
C1487      H4228   1.081       .  S
C1488      C1489   1.415       .  A
C1489      C1490   1.399       .  A
C1489      H1493   1.078       .  S
C1490      C1491   1.396       .  A
C1490      C2458   1.479       .  S
C1491      H1494   1.084       .  S
H1492      C4223   1.081       .  S
C1495      C1496   1.402       .  A
C1495      C1500   1.396       .  A
C1495      C2448   1.477       .  S
C1496      C1497   1.417       .  A
C1496      H1501   1.078       .  S
C1497      C1498   1.421       .  A
C1497      C1506   1.517       .  S
C1498      C1499   1.402       .  A
C1498      H1502   1.076       .  S
C1499      C1500   1.396       .  A
C1499      C2441   1.483       .  S
C1500      H1503   1.084       .  S
C1504      C1505   1.395       .  A
C1504      C1509   1.400       .  A
C1504      C2421   1.483       .  S
C1505      C1506   1.412       .  A
C1505      H1510   1.076       .  S
C1506      C1507   1.421       .  A
C1507      C1508   1.415       .  A
C1507      H1511   1.076       .  S
C1508      C1509   1.406       .  A
C1508      C2428   1.518       .  S
C1509      H1512   1.081       .  S
C1513      C1514   1.399       .  A
C1513      C1518   1.397       .  A
C1513      C2408   1.483       .  S
C1514      C1515   1.411       .  A
C1514      H1519   1.081       .  S
C1515      C1516   1.412       .  A
C1515      C1524   1.494       .  S
C1516      C1517   1.404       .  A
C1516      H1520   1.082       .  S
C1517      C1518   1.401       .  A
C1517      C2398   1.491       .  S
C1518      H1521   1.084       .  S
C1522      C1523   1.402       .  A
C1522      C1527   1.399       .  A
C1522      C2381   1.492       .  S
C1523      C1524   1.413       .  A
C1523      H1528   1.081       .  S
C1524      C1525   1.412       .  A
C1525      C1526   1.400       .  A
C1525      H1529   1.081       .  S
C1526      C1527   1.399       .  A
C1526      C2388   1.489       .  S
C1527      H1530   1.083       .  S
C1531      C1532   1.404   1_556  A
C1531      C1536   1.397   1_556  A
C1532      C1533   1.419       .  A
C1532      H1537   1.076   1_554  S
C1533      C1534   1.417       .  A
C1533      C1542   1.510       .  S
C1534      C1535   1.398       .  A
C1534      H1538   1.079       .  S
C1535      C1536   1.391       .  A
C1535      C2371   1.475       .  S
C1536      H1539   1.085   1_564  S
C1540      C1541   1.402       .  A
C1540      C1545   1.398       .  A
C1540      C2348   1.489       .  S
C1541      C1542   1.417       .  A
C1541      H1546   1.079       .  S
C1542      C1543   1.417       .  A
C1543      C1544   1.402       .  A
C1543      H1547   1.077       .  S
C1544      C1545   1.395       .  A
C1544      C2338   1.486       .  S
C1545      H1548   1.084       .  S
C1549      C1550   1.396       .  A
C1549      C1554   1.396       .  A
C1549      C2321   1.481       .  S
C1550      C1551   1.403       .  A
C1550      H1555   1.083       .  S
C1551      C1552   1.405       .  A
C1551      C2328   1.492       .  S
C1552      C1553   1.411       .  A
C1552      H1556   1.082       .  S
C1553      C1554   1.410       .  A
C1553      C1560   1.492       .  S
C1554      H4293   1.081       .  S
H1557      C4290   1.081       .  S
C1558      C1559   1.403       .  A
C1558      C1563   1.400       .  A
C1558      C2308   1.491       .  S
C1559      C1560   1.412       .  A
C1559      H1564   1.082       .  S
C1560      C1561   1.411       .  A
C1561      C4298   1.397   1_455  A
C1561      H4301   1.081   1_455  S
C1562      C4297   1.397       .  A
C1562      C4299   1.397       .  A
C1562      C2301   1.485       .  S
C1563      C4298   1.397   1_455  A
C1563      H4302   1.083   1_455  S
H1565      C4297   1.081       .  S
H1566      C4299   1.083       .  S
C1567      C1568   1.403       .  A
C1567      C1572   1.397       .  A
C1567      C2278   1.482       .  S
C1568      C1569   1.415       .  A
C1568      H1573   1.079       .  S
C1569      C1570   1.416       .  A
C1569      C1578   1.506       .  S
C1570      C1571   1.403       .  A
C1570      H1574   1.081       .  S
C1571      C1572   1.398       .  A
C1571      C2288   1.486       .  S
C1572      H1575   1.084       .  S
C1576      C1577   1.406       .  A
C1577      C1578   1.414       .  A
C1577      H1582   1.080       .  S
C1578      C1579   1.414       .  A
C1579      H1583   1.079       .  S
C1580      C1581   1.397       .  A
C1580      C2271   1.481       .  S
C1581      H1584   1.084       .  S
C1585      C1586   1.407       .  A
C1585      C1590   1.400       .  A
C1585      C2248   1.495       .  S
C1586      C1587   1.422       .  A
C1586      H1591   1.076       .  S
C1587      C1588   1.419       .  A
C1587      C1596   1.520       .  S
C1588      C1589   1.401       .  A
C1588      H1592   1.077       .  S
C1589      C1590   1.398       .  A
C1589      C2238   1.484       .  S
C1590      H1593   1.084       .  S
C1594      C1595   1.405       .  A
C1594      C1599   1.394       .  A
C1594      C2228   1.486       .  S
C1595      C1596   1.422       .  A
C1595      H1600   1.077       .  S
C1596      C1597   1.420       .  A
C1597      C1598   1.403       .  A
C1597      H1601   1.076       .  S
C1598      C1599   1.393       .  A
C1598      C2218   1.479       .  S
C1599      H1602   1.085       .  S
C1603      C1604   1.414       .  A
C1603      C1608   1.405       .  A
C1603      C2208   1.526       .  S
C1604      C1605   1.419       .  A
C1604      H1609   1.073       .  S
C1605      C1606   1.409       .  A
C1605      C1614   1.503       .  S
C1606      C1607   1.392       .  A
C1606      H1610   1.080       .  S
C1607      C1608   1.392       .  A
C1607      C2198   1.474       .  S
C1608      H1611   1.075       .  S
C1612      C1613   1.404       .  A
C1612      C2188   1.492       .  S
C1613      C1614   1.416       .  A
C1613      H1618   1.080       .  S
C1614      C1615   1.411       .  A
C1615      H1619   1.080       .  S
C1616      C1617   1.398       .  A
C1616      C2178   1.483       .  S
C1617      H1620   1.084       .  S
C1621      C1622   1.399       .  A
C1621      C1626   1.395       .  A
C1622      C1623   1.419       .  A
C1622      H1627   1.075       .  S
C1623      C1624   1.421       .  A
C1623      C1632   1.520       .  S
C1624      C1625   1.407       .  A
C1624      H1628   1.076       .  S
C1625      C1626   1.401       .  A
C1625      C2171   1.490       .  S
C1626      H1629   1.084   1_565  S
C1630      C1631   1.405       .  A
C1630      C1635   1.394       .  A
C1630      C2138   1.478       .  S
C1631      C1632   1.420       .  A
C1631      H1636   1.077       .  S
C1632      C1633   1.419       .  A
C1633      C1634   1.399       .  A
C1633      H1637   1.075       .  S
C1634      C1635   1.391       .  A
C1634      C2148   1.475       .  S
C1635      H1638   1.085       .  S
C1639      C1640   1.396       .  A
C1639      C1644   1.395       .  A
C1639      C2121   1.480       .  S
C1640      C1641   1.415       .  A
C1640      H1645   1.077       .  S
C1641      C1642   1.418       .  A
C1641      C1650   1.510       .  S
C1642      C1643   1.409       .  A
C1642      H1646   1.079       .  S
C1643      C1644   1.402       .  A
C1643      C2131   1.499       .  S
C1644      H1647   1.084       .  S
C1648      C1649   1.405       .  A
C1648      C1653   1.395       .  A
C1648      C2108   1.480       .  S
C1649      C1650   1.419       .  A
C1649      H1654   1.080       .  S
C1650      C1651   1.417       .  A
C1651      C1652   1.399       .  A
C1651      H1655   1.078       .  S
C1652      C1653   1.390       .  A
C1652      C2098   1.475       .  S
C1653      H1656   1.085       .  S
C1657      C1658   1.408   1_556  A
C1657      C1662   1.400       .  A
C1657      C2091   1.501       .  S
C1658      C1659   1.421       .  A
C1658      H1663   1.075   1_554  S
C1659      C1660   1.413       .  A
C1659      C1668   1.513       .  S
C1660      C1661   1.398       .  A
C1660      H1664   1.079       .  S
C1661      C1662   1.396   1_554  A
C1661      C2078   1.481       .  S
C1662      H1665   1.084       .  S
C1666      C1667   1.412       .  A
C1666      C1671   1.406       .  A
C1666      C4794   1.514       .  S
C1667      C1668   1.421       .  A
C1667      H1672   1.077       .  S
C1668      C1669   1.411       .  A
C1669      C1670   1.394       .  A
C1669      H1673   1.077       .  S
C1670      C1671   1.400       .  A
C1670      C2068   1.479       .  S
C1671      H1674   1.081       .  S
C1675      C1676   1.411       .  A
C1675      C1680   1.406       .  A
C1675      C2041   1.507       .  S
C1676      C1677   1.420       .  A
C1676      H1681   1.079       .  S
C1677      C1678   1.411       .  A
C1677      C1686   1.511       .  S
C1678      C1679   1.397       .  A
C1678      H1682   1.077       .  S
C1679      C1680   1.402       .  A
C1679      C2051   1.486       .  S
C1680      H1683   1.084       .  S
C1684      C1685   1.407   1_655  A
C1684      C4425   1.402       .  A
C1684      C4757   1.500       .  S
C1685      C1686   1.421       .  A
C1685      H1690   1.079       .  S
C1686      C1687   1.414       .  A
C1687      C4424   1.399   1_455  A
C1687      H1691   1.079       .  S
C1688      C4423   1.399       .  A
C1688      C1689   1.402       .  A
C1688      C2031   1.481       .  S
C1689      C4420   1.402       .  A
C1689      H1692   1.084       .  S
O1693     Zr1729   2.451       .  S
O1693      C1704   1.294       .  A
O1694     Zr1728   2.469       .  S
O1694      C1705   1.296       .  A
O1695     Zr1701   2.469       .  S
O1695      C1706   1.298       .  A
O1696     Zr1701   2.485       .  S
O1696      C1707   1.302       .  A
O1697     Zr1731   2.409       .  S
O1697      C1707   1.287       .  A
O1698     Zr1730   2.429       .  S
O1698      C1706   1.289       .  A
O1699     Zr1701   2.410       .  S
O1699      C1705   1.284       .  A
O1700     Zr1701   2.426       .  S
O1700      C1704   1.289       .  A
Zr1701     O1702   2.331       .  S
Zr1701     O1703   2.330       .  S
Zr1701     O1711   2.345       .  S
Zr1701     O1709   2.339       .  S
O1702     Zr1728   2.321       .  S
O1702     Zr1731   2.351       .  S
O1703     Zr1729   2.332       .  S
O1703     Zr1730   2.345       .  S
C1704      C2731   1.485       .  S
C1705      C2478   1.497       .  S
C1706      C2418   1.498       .  S
C1707      C2028   1.483       .  S
H1708      O1709   0.965       .  S
O1709     Zr1728   2.344       .  S
O1709     Zr1730   2.349       .  S
H1710      O1711   0.965       .  S
O1711     Zr1729   2.337       .  S
O1711     Zr1731   2.353       .  S
O1712     Zr1728   2.441       .  S
O1712      C1735   1.293       .  A
O1713     Zr1729   2.451       .  S
O1713      C1736   1.294       .  A
O1714     Zr1730   2.483       .  S
O1714      C1737   1.302       .  A
O1715     Zr1731   2.426       .  S
O1715      C1738   1.287       .  A
O1716     Zr1731   2.481       .  S
O1716      C1739   1.300       .  A
O1717     Zr1730   2.452       .  S
O1717      C1740   1.293       .  A
O1718     Zr1732   2.438       .  S
O1718      C1741   1.290       .  A
O1719     Zr1732   2.396       .  S
O1719      C1742   1.282       .  A
O1720     Zr1730   2.467       .  S
O1720      C1741   1.298       .  A
O1721     Zr1731   2.490       .  S
O1721      C1742   1.303       .  A
O1722     Zr1728   2.418       .  S
O1722      C1737   1.288       .  A
O1723     Zr1729   2.422       .  S
O1723      C1740   1.285       .  A
O1724     Zr1729   2.427       .  S
O1724      C1739   1.288       .  A
O1725     Zr1728   2.460       .  S
O1725      C1738   1.295       .  A
O1726     Zr1732   2.443       .  S
O1726      C1735   1.292       .  A
O1727     Zr1732   2.438       .  S
O1727      C1736   1.291       .  A
Zr1728     O1734   2.362       .  S
Zr1728     O1746   2.345       .  S
Zr1729     O1733   2.345       .  S
Zr1729     O1744   2.354       .  S
Zr1730     O1734   2.338       .  S
Zr1730     O1744   2.344       .  S
Zr1731     O1733   2.322       .  S
Zr1731     O1746   2.341       .  S
Zr1732     O1733   2.349       .  S
Zr1732     O1734   2.336       .  S
Zr1732     O1746   2.347       .  S
Zr1732     O1744   2.339       .  S
C1735      C2601   1.475       .  S
C1736      C2461   1.475       .  S
C1737      C2658   1.486       .  S
C1738      C2088   1.507       .  S
C1739      C2691   1.483       .  S
C1740      C2211   1.511       .  S
C1741      C2048   1.490       .  S
C1742      C2361   1.488       .  S
H1743      O1744   0.965       .  S
H1745      O1746   0.966       .  S
O1747     Zr1783   2.435   1_556  S
O1747      C1758   1.291       .  A
O1748     Zr1782   2.441       .  S
O1748      C1759   1.291       .  A
O1749     Zr1755   2.436       .  S
O1749      C1760   1.291       .  A
O1750      C1761   1.292       .  A
O1751      C4497   1.294   1_455  A
O1752     Zr1784   2.449       .  S
O1752      C1760   1.294       .  A
O1753      C1759   1.290       .  A
O1754     Zr1755   2.432   1_556  S
O1754      C1758   1.290       .  A
Zr1755     O1757   2.332       .  S
Zr1755     O1765   2.336   1_554  S
Zr1755     O1763   2.340       .  S
O1756     Zr1782   2.340       .  S
O1756     Zr3153   2.330       .  S
O1757     Zr1783   2.335       .  S
O1757     Zr1784   2.341       .  S
C1758      C2668   1.475       .  S
C1759      C2081   1.470       .  S
C1760      C2341   1.485       .  S
C1761      C2018   1.498       .  S
C1761      O4487   1.294       .  A
H1762      O1763   0.965       .  S
O1763     Zr1784   2.348       .  S
H1764      O1765   0.965       .  S
O1765     Zr1783   2.338   1_556  S
O1765     Zr4521   2.336   1_556  S
O1766     Zr4518   2.456   1_455  S
O1767     Zr1783   2.438       .  S
O1767      C1790   1.291       .  A
O1768     Zr1784   2.461       .  S
O1768      C1791   1.297       .  A
O1769      C1792   1.292       .  A
O1770     Zr1785   2.437   1_556  S
O1770      C4529   1.292   1_455  A
O1771     Zr1784   2.451       .  S
O1771      C1794   1.293       .  A
O1772     Zr1786   2.433       .  S
O1772      C1795   1.291       .  A
O1773     Zr4522   2.462   1_455  S
O1773      C1796   1.296       .  A
O1774     Zr1784   2.471       .  S
O1774      C1795   1.299       .  A
O1775     Zr1785   2.426       .  S
O1775      C1796   1.289       .  A
O1776     Zr1782   2.438       .  S
O1777     Zr1783   2.431       .  S
O1777      C1794   1.290       .  A
O1778     Zr1783   2.439   1_556  S
O1778      C1793   1.292       .  A
O1779     Zr4518   2.440   1_455  S
O1779      C1792   1.292       .  A
O1780     Zr4522   2.442   1_455  S
O1780      C1789   1.292       .  A
O1781     Zr1786   2.450       .  S
O1781      C1790   1.294       .  A
Zr1782     O4502   2.456       .  S
Zr1782     O4515   2.440       .  S
Zr1782     O3168   2.348       .  S
Zr1783     O1787   2.340       .  S
Zr1783     O1798   2.339       .  S
Zr1784     O1788   2.344       .  S
Zr1784     O1798   2.344       .  S
Zr1785     O3124   2.330   1_465  S
Zr1785     O4501   2.336   1_454  S
Zr1785     O4523   2.350   1_455  S
Zr1785     O1800   2.355       .  S
Zr1786     O4509   2.462       .  S
Zr1786     O4516   2.442       .  S
Zr1786     O1787   2.341       .  S
Zr1786     O1788   2.351       .  S
Zr1786     O4536   2.349       .  S
Zr1786     O1798   2.347       .  S
O1787     Zr4521   2.350       .  S
C1790      C2071   1.483       .  S
C1791      C2261   1.498       .  S
C1792      C2581   1.492       .  S
C1793      C5207   1.483       .  S
C1793      O4506   1.292       .  A
C1794      C2611   1.498       .  S
C1795      C2111   1.486       .  S
C1796      C2368   1.474       .  S
H1797      O1798   0.965       .  S
O1800     Zr3150   2.348   1_465  S
O1800     Zr4522   2.349   1_455  S
O1801     Zr1837   2.460       .  S
O1801      C1812   1.296       .  A
O1802     Zr1836   2.474       .  S
O1802      C1813   1.299       .  A
O1803     Zr1809   2.478       .  S
O1803      C1814   1.300       .  A
O1804     Zr1809   2.454       .  S
O1804      C1815   1.295       .  A
O1805     Zr1839   2.426       .  S
O1805      C1815   1.289       .  A
O1806     Zr1838   2.415       .  S
O1806      C1814   1.287       .  A
O1807     Zr1809   2.420       .  S
O1807      C1813   1.288       .  A
O1808     Zr1809   2.436       .  S
O1808      C1812   1.290       .  A
Zr1809     O1810   2.347       .  S
Zr1809     O1811   2.340       .  S
Zr1809     O1819   2.344       .  S
Zr1809     O1817   2.346       .  S
O1810     Zr1836   2.328       .  S
O1810     Zr1839   2.337       .  S
O1811     Zr1837   2.350       .  S
O1811     Zr1838   2.352       .  S
C1812      C2648   1.497       .  S
C1813      C2221   1.479       .  S
C1814      C2158   1.481       .  S
C1815      C2298   1.485       .  S
H1816      O1817   0.966       .  S
O1817     Zr1836   2.346       .  S
O1817     Zr1838   2.343       .  S
H1818      O1819   0.965       .  S
O1819     Zr1837   2.341       .  S
O1819     Zr1839   2.341       .  S
O1820     Zr1836   2.445       .  S
O1820      C1843   1.293       .  A
O1821     Zr1837   2.458       .  S
O1821      C1844   1.295       .  A
O1822     Zr1838   2.489       .  S
O1822      C1845   1.302       .  A
O1823     Zr1839   2.447       .  S
O1823      C1846   1.293       .  A
O1824     Zr1839   2.441       .  S
O1824      C1847   1.292       .  A
O1825     Zr1838   2.456       .  S
O1825      C1848   1.296       .  A
O1826     Zr1840   2.459       .  S
O1826      C1849   1.295       .  A
O1827     Zr1840   2.449       .  S
O1827      C1850   1.295       .  A
O1828     Zr1838   2.418       .  S
O1828      C1849   1.285       .  A
O1829     Zr1839   2.422       .  S
O1829      C1850   1.288       .  A
O1830     Zr1836   2.399       .  S
O1830      C1845   1.283       .  A
O1831     Zr1837   2.430       .  S
O1831      C1848   1.290       .  A
O1832     Zr1837   2.438       .  S
O1832      C1847   1.292       .  A
O1833     Zr1836   2.435       .  S
O1833      C1846   1.291       .  A
O1834     Zr1840   2.442       .  S
O1834      C1843   1.293       .  A
O1835     Zr1840   2.437       .  S
O1835      C1844   1.292       .  A
Zr1836     O1842   2.348       .  S
Zr1836     O1854   2.341       .  S
Zr1837     O1841   2.341       .  S
Zr1837     O1852   2.344       .  S
Zr1838     O1842   2.332       .  S
Zr1838     O1852   2.344       .  S
Zr1839     O1841   2.340       .  S
Zr1839     O1854   2.338       .  S
Zr1840     O1841   2.346       .  S
Zr1840     O1842   2.339       .  S
Zr1840     O1854   2.345       .  S
Zr1840     O1852   2.335       .  S
C1843      C2501   1.481       .  S
C1844      C2241   1.482       .  S
C1845      C2538   1.492       .  S
C1846      C2281   1.484       .  S
C1847      C2568   1.478       .  S
C1848      C2411   1.478       .  S
C1849      C2331   1.500       .  S
C1850      C2118   1.478       .  S
H1851      O1852   0.965       .  S
H1853      O1854   0.966       .  S
O1855     Zr1891   2.447       .  S
O1855      C1866   1.293       .  A
O1856     Zr1890   2.460       .  S
O1856      C1867   1.296       .  A
O1857     Zr1863   2.446       .  S
O1857      C1868   1.293       .  A
O1858     Zr1863   2.440       .  S
O1858      C1869   1.292       .  A
O1859     Zr1893   2.442       .  S
O1859      C1869   1.291       .  A
O1860     Zr1892   2.434       .  S
O1860      C1868   1.291       .  A
O1861     Zr1863   2.427       .  S
O1861      C1867   1.289       .  A
O1862     Zr1863   2.434       .  S
O1862      C1866   1.291       .  A
Zr1863     O1864   2.343       .  S
Zr1863     O1865   2.340       .  S
Zr1863     O1873   2.339       .  S
Zr1863     O1871   2.342       .  S
O1864     Zr1890   2.348       .  S
O1864     Zr1893   2.341       .  S
O1865     Zr1891   2.342       .  S
O1865     Zr1892   2.347       .  S
C1866      C2721   1.482       .  S
C1867      C2488   1.475       .  S
C1868      C2181   1.481       .  S
C1869      C2681   1.498       .  S
H1870      O1871   0.965       .  S
O1871     Zr1890   2.345       .  S
O1871     Zr1892   2.337       .  S
H1872      O1873   0.966       .  S
O1873     Zr1891   2.346       .  S
O1873     Zr1893   2.339       .  S
O1874     Zr1890   2.471       .  S
O1874      C1897   1.299       .  A
O1875     Zr1891   2.434       .  S
O1875      C1898   1.290       .  A
O1876     Zr1892   2.448       .  S
O1876      C1899   1.291       .  A
O1877     Zr1893   2.463       .  S
O1877      C1900   1.296       .  A
O1878     Zr1893   2.484       .  S
O1878      C1901   1.301       .  A
O1879     Zr1892   2.433       .  S
O1879      C1902   1.290       .  A
O1880     Zr1894   2.455       .  S
O1880      C1903   1.296       .  A
O1881     Zr1894   2.463       .  S
O1881      C1904   1.296       .  A
O1882     Zr1892   2.437       .  S
O1882      C1903   1.291       .  A
O1883     Zr1893   2.422       .  S
O1883      C1904   1.289       .  A
O1884     Zr1890   2.436       .  S
O1884      C1899   1.289       .  A
O1885     Zr1891   2.450       .  S
O1885      C1902   1.294       .  A
O1886     Zr1891   2.425       .  S
O1886      C1901   1.289       .  A
O1887     Zr1890   2.443       .  S
O1887      C1900   1.292       .  A
O1888     Zr1894   2.418       .  S
O1888      C1897   1.287       .  A
O1889     Zr1894   2.440       .  S
O1889      C1898   1.292       .  A
Zr1890     O1896   2.340       .  S
Zr1890     O1908   2.333       .  S
Zr1891     O1895   2.345       .  S
Zr1891     O1906   2.340       .  S
Zr1892     O1896   2.341       .  S
Zr1892     O1906   2.345       .  S
Zr1893     O1895   2.348       .  S
Zr1893     O1908   2.348       .  S
Zr1894     O1895   2.341       .  S
Zr1894     O1896   2.342       .  S
Zr1894     O1908   2.342       .  S
Zr1894     O1906   2.337       .  S
C1897      C2701   1.494       .  S
C1898      C2378   1.494       .  S
C1899      C5167   1.511       .  S
C1900      C2038   1.506       .  S
C1901      C2438   1.486       .  S
C1902      C2141   1.472       .  S
C1903      C2621   1.487       .  S
C1904      C2201   1.472       .  S
H1905      O1906   0.965       .  S
H1907      O1908   0.965       .  S
O1909     Zr1945   2.433       .  S
O1909      C1920   1.291       .  A
O1910     Zr1944   2.444       .  S
O1910      C1921   1.292       .  A
O1911     Zr1917   2.422       .  S
O1911      C1922   1.288       .  A
O1912     Zr1917   2.440       .  S
O1912      C1923   1.290       .  A
O1913     Zr1947   2.428       .  S
O1913      C1923   1.288       .  A
O1914     Zr1946   2.462       .  S
O1914      C1922   1.297       .  A
O1915     Zr1917   2.454       .  S
O1915      C1921   1.295       .  A
O1916     Zr1917   2.457       .  S
O1916      C1920   1.296       .  A
Zr1917     O1918   2.342       .  S
Zr1917     O1919   2.341       .  S
Zr1917     O1927   2.335       .  S
Zr1917     O1925   2.349       .  S
O1918     Zr1944   2.338       .  S
O1918     Zr1947   2.335       .  S
O1919     Zr1945   2.345       .  S
O1919     Zr1946   2.342       .  S
C1920      C2588   1.486       .  S
C1921      C2268   1.478       .  S
C1922      C2351   1.488       .  S
C1923      C2128   1.498       .  S
H1924      O1925   0.966       .  S
O1925     Zr1944   2.345       .  S
O1925     Zr1946   2.338       .  S
H1926      O1927   0.965       .  S
O1927     Zr1945   2.351       .  S
O1927     Zr1947   2.348       .  S
O1928     Zr1944   2.436       .  S
O1928      C1951   1.291       .  A
O1929     Zr1945   2.453       .  S
O1929      C1952   1.294       .  A
O1930     Zr1946   2.454       .  S
O1930      C1953   1.295       .  A
O1931     Zr1947   2.452       .  S
O1931      C1954   1.295       .  A
O1932     Zr1947   2.451       .  S
O1932      C1955   1.294       .  A
O1933     Zr1946   2.424       .  S
O1933      C1956   1.286       .  A
O1934     Zr1948   2.434       .  S
O1934      C1957   1.291       .  A
O1935     Zr1948   2.424       .  S
O1935      C1958   1.287       .  A
O1936     Zr1946   2.460       .  S
O1936      C1957   1.297       .  A
O1937     Zr1947   2.444       .  S
O1937      C1958   1.293       .  A
O1938     Zr1944   2.421       .  S
O1938      C1953   1.287       .  A
O1939     Zr1945   2.464       .  S
O1939      C1956   1.294       .  A
O1940     Zr1945   2.439       .  S
O1940      C1955   1.292       .  A
O1941     Zr1944   2.442       .  S
O1941      C1954   1.292       .  A
O1942     Zr1948   2.454       .  S
O1942      C1951   1.295       .  A
O1943     Zr1948   2.450       .  S
O1943      C1952   1.294       .  A
Zr1944     O1950   2.341       .  S
Zr1944     O1962   2.339       .  S
Zr1945     O1949   2.344       .  S
Zr1945     O1960   2.331       .  S
Zr1946     O1950   2.341       .  S
Zr1946     O1960   2.350       .  S
Zr1947     O1949   2.344       .  S
Zr1947     O1962   2.339       .  S
Zr1948     O1949   2.338       .  S
Zr1948     O1950   2.341       .  S
Zr1948     O1962   2.344       .  S
Zr1948     O1960   2.339       .  S
C1951      C2548   1.477       .  S
C1952      C5027   1.491       .  S
C1953      C2508   1.491       .  S
C1954      C2251   1.488       .  S
C1955      C2528   1.475       .  S
C1956      C2061   1.514       .  S
C1957      C2101   1.476       .  S
C1958      C2311   1.495       .  S
H1959      O1960   0.964       .  S
H1961      O1962   0.966       .  S
O1963     Zr1999   2.479       .  S
O1963      C1974   1.300       .  A
O1964     Zr1998   2.464       .  S
O1964      C1975   1.297       .  A
O1965     Zr1971   2.461       .  S
O1965      C1976   1.296       .  A
O1966     Zr1971   2.480       .  S
O1966      C1977   1.300       .  A
O1967     Zr2001   2.405       .  S
O1967      C1977   1.284       .  A
O1968      C1976   1.290       .  A
O1969     Zr1971   2.407       .  S
O1969      C1975   1.284       .  A
O1970     Zr1971   2.417       .  S
Zr1971     O1972   2.333       .  S
Zr1971     O1973   2.341       .  S
Zr1971     O1981   2.343       .  S
Zr1971     O1979   2.344       .  S
O1972     Zr1998   2.332       .  S
O1972     Zr2001   2.333       .  S
C1974      C2711   1.481       .  S
C1975      C2391   1.491       .  S
C1976      C2168   1.484       .  S
C1977      C2451   1.475       .  S
H1978      O1979   0.966       .  S
O1979     Zr1998   2.340       .  S
H1980      O1981   0.966       .  S
O1981     Zr2001   2.349       .  S
O1982     Zr1998   2.444       .  S
O1982      C2005   1.293       .  A
O1983     Zr4735   2.458   1_455  S
O1983      C2006   1.296       .  A
O1984      C2007   1.295       .  A
O1985     Zr2001   2.437       .  S
O1985      C2008   1.291       .  A
O1986     Zr4737   2.423   1_455  S
O1987     Zr2000   2.468       .  S
O1987      C2010   1.298       .  A
O1988      C2011   1.292   1_455  A
O1989     Zr2002   2.434       .  S
O1989      C2012   1.290       .  A
O1990     Zr2000   2.433       .  S
O1990      C4747   1.290       .  A
O1991     Zr4737   2.439   1_455  S
O1991      C2012   1.291       .  A
O1992     Zr1998   2.439       .  S
O1992      C2007   1.293       .  A
O1993     Zr1999   2.426       .  S
O1993      C2010   1.289       .  A
O1994     Zr4735   2.460   1_455  S
O1994      C2009   1.296       .  A
O1995     Zr1998   2.439       .  S
O1995      C2008   1.292       .  A
O1996     Zr2002   2.442       .  S
O1996      C4741   1.292   1_455  A
O1997      C2006   1.288       .  A
Zr1998     O2004   2.351       .  S
Zr1998     O2016   2.348       .  S
Zr1999     O4719   2.458       .  S
Zr1999     O4730   2.460       .  S
Zr1999     O3371   2.339       .  S
Zr1999     O2014   2.348       .  S
Zr2000     O2014   2.336       .  S
Zr2001     O4722   2.423       .  S
Zr2001     O4727   2.439       .  S
Zr2001     O4739   2.330       .  S
Zr2001     O2016   2.338       .  S
Zr2002     O2003   2.343       .  S
Zr2002     O4740   2.338   1_455  S
Zr2002     O4752   2.345   1_455  S
Zr2002     O3382   2.336   1_465  S
O2003     Zr3367   2.339   1_465  S
O2003     Zr4737   2.330   1_455  S
O2004     Zr4738   2.338       .  S
C2005      C2561   1.481       .  S
C2005      O4732   1.292       .  A
C2006      C2401   1.491       .  S
C2007      C2231   1.483       .  S
C2008      C2641   1.488       .  S
C2009      C2191   1.492       .  S
C2010      C2628   1.490       .  S
C2011      C2318   1.472   1_655  S
C2011      O4726   1.290       .  A
C2012      C2151   1.469       .  S
H2013      O4750   0.965       .  S
O2014     Zr3370   2.336       .  S
O2014      H4749   0.965       .  S
H2015      O2016   0.966       .  S
O2016     Zr4738   2.345       .  S
C2017      C4754   1.418   1_455  A
C2017      C2022   1.416       .  A
C2017     Br2024   1.934       .  S
C2018      C4753   1.418       .  A
C2018      C2019   1.417       .  A
C2019      C2020   1.406       .  A
C2019     Br2026   1.932       .  S
C2020      C2021   1.411       .  A
C2020     Br2025   1.928       .  S
C2021      C4758   1.416       .  A
C2021      C4420   1.500       .  S
C2022      C4757   1.416   1_455  A
C2022     Br2023   1.932       .  S
C2027      C2028   1.409       .  A
C2027      C2032   1.396       .  A
C2027     Br2034   1.922       .  S
C2028      C2029   1.414       .  A
C2029      C2030   1.415       .  A
C2029     Br2036   1.924       .  S
C2030      C2031   1.409       .  A
C2030     Br4771   1.927       .  S
C2031      C2032   1.403       .  A
C2032     Br2033   1.927       .  S
Br2035     C4766   1.927       .  S
C2037      C2038   1.425       .  A
C2037      C2042   1.416       .  A
C2037     Br2044   1.932       .  S
C2038      C2039   1.419       .  A
C2039      C2040   1.405       .  A
C2039     Br2046   1.935       .  S
C2040      C2041   1.411       .  A
C2040     Br2045   1.921       .  S
C2041      C2042   1.417       .  A
C2042     Br2043   1.934       .  S
C2047      C2048   1.412       .  A
C2047      C2052   1.411       .  A
C2047     Br2054   1.918       .  S
C2048      C2049   1.409       .  A
C2049      C2050   1.402       .  A
C2049     Br2056   1.913       .  S
C2050      C2051   1.406       .  A
C2050     Br2055   1.927       .  S
C2051      C2052   1.412       .  A
C2052     Br2053   1.928       .  S
C2057      C2058   1.419       .  A
C2057      C2062   1.404       .  A
C2057     Br2064   1.933       .  S
C2058      C2059   1.421       .  A
C2058      C4402   1.514   1_455  S
C2059      C2060   1.416       .  A
C2059     Br4802   1.936   1_455  S
C2060      C2061   1.424       .  A
C2060     Br2065   1.934       .  S
C2061      C2062   1.427       .  A
C2062     Br2063   1.948       .  S
Br2066     C4795   1.936       .  S
C2067      C2068   1.406       .  A
C2067      C2072   1.401       .  A
C2067     Br4810   1.932       .  S
C2068      C2069   1.405       .  A
C2069      C2070   1.412       .  A
C2069     Br2076   1.928       .  S
C2070      C2071   1.419       .  A
C2070     Br2075   1.927       .  S
C2071      C2072   1.409       .  A
C2072     Br4809   1.923       .  S
Br2073     C4808   1.923   1_455  S
Br2074     C4803   1.932   1_455  S
C2077      C2078   1.416       .  A
C2077      C2082   1.408       .  A
C2077     Br2084   1.930       .  S
C2078      C2079   1.407       .  A
C2079      C2080   1.403       .  A
C2079     Br4822   1.931   1_554  S
C2080      C2081   1.409       .  A
C2080     Br4821   1.924   1_554  S
C2081      C2082   1.405       .  A
C2082     Br2083   1.930       .  S
Br2085     C4816   1.924   1_556  S
Br2086     C4815   1.931   1_456  S
C2087      C2088   1.422       .  A
C2087      C2092   1.402       .  A
C2087     Br2094   1.939       .  S
C2088      C2089   1.423       .  A
C2089      C2090   1.417       .  A
C2089     Br2096   1.936       .  S
C2090      C2091   1.417       .  A
C2090     Br2095   1.935       .  S
C2091      C2092   1.413       .  A
C2092     Br2093   1.938       .  S
C2097      C2098   1.404       .  A
C2097      C2102   1.404       .  A
C2097     Br2104   1.932       .  S
C2098      C2099   1.411       .  A
C2099      C4836   1.408       .  A
C2099     Br2106   1.930       .  S
C2100      C4835   1.408   1_455  A
C2100      C2101   1.408       .  A
C2100     Br2105   1.925       .  S
C2101      C4838   1.410   1_455  A
C2102      C4837   1.410       .  A
C2102     Br4839   1.917       .  S
Br2103     C4838   1.917   1_455  S
C2107      C2108   1.409       .  A
C2107      C2112   1.409       .  A
C2107     Br2114   1.931       .  S
C2108      C2109   1.409       .  A
C2109      C2110   1.405       .  A
C2109     Br2116   1.934       .  S
C2110      C2111   1.411       .  A
C2110     Br2115   1.919       .  S
C2111      C2112   1.410       .  A
C2112     Br2113   1.917       .  S
C2117      C2118   1.418       .  A
C2117      C2122   1.410       .  A
C2117     Br2124   1.932       .  S
C2118      C2119   1.410       .  A
C2119      C2120   1.399       .  A
C2119     Br2126   1.931       .  S
C2120      C2121   1.406       .  A
C2120     Br2125   1.927       .  S
C2121      C2122   1.407       .  A
C2122     Br2123   1.928       .  S
C2127      C2128   1.421       .  A
C2127      C2132   1.400       .  A
C2127     Br2134   1.944       .  S
C2128      C2129   1.424       .  A
C2129      C2130   1.414       .  A
C2129     Br2136   1.936       .  S
C2130      C2131   1.416       .  A
C2130     Br2135   1.935       .  S
C2131      C2132   1.412       .  A
C2132     Br2133   1.927       .  S
C2137      C2138   1.409       .  A
C2137      C2142   1.405       .  A
C2137     Br2144   1.930       .  S
C2138      C2139   1.409       .  A
C2139      C2140   1.408       .  A
C2139     Br2146   1.930       .  S
C2140      C2141   1.410       .  A
C2140     Br2145   1.930       .  S
C2141      C2142   1.408       .  A
C2142     Br2143   1.926       .  S
C2147      C2148   1.407       .  A
C2147      C2152   1.405       .  A
C2147     Br2154   1.929       .  S
C2148      C2149   1.409       .  A
C2149      C2150   1.406       .  A
C2150      C2151   1.410       .  A
C2151      C2152   1.407       .  A
C2152     Br2153   1.925       .  S
C2157      C2158   1.406       .  A
C2157      C2162   1.406       .  A
C2157     Br2164   1.922       .  S
C2158      C2159   1.412       .  A
C2159     Br2166   1.928       .  S
C2160     Br2165   1.929   1_545  S
C2161      C2162   1.410       .  A
C2162     Br2163   1.926       .  S
C2167      C2168   1.415       .  A
C2167      C2172   1.413       .  A
C2167     Br2174   1.932       .  S
C2168      C2169   1.411       .  A
C2169      C2170   1.403       .  A
C2170      C2171   1.410       .  A
C2171      C2172   1.413       .  A
C2172     Br2173   1.931       .  S
C2177      C2178   1.414       .  A
C2177      C2182   1.409       .  A
C2177     Br2184   1.933       .  S
C2178      C2179   1.408       .  A
C2179      C2180   1.405       .  A
C2179     Br2186   1.934       .  S
C2180      C2181   1.413       .  A
C2180     Br2185   1.924       .  S
C2181      C2182   1.412       .  A
C2182     Br2183   1.933       .  S
C2187      C2188   1.417       .  A
C2187      C2192   1.412       .  A
C2187     Br2194   1.934       .  S
C2188      C2189   1.410       .  A
C2190     Br2195   1.934       .  S
C2191      C2192   1.416       .  A
C2192     Br2193   1.934       .  S
C2197      C2198   1.409       .  A
C2197      C2202   1.407       .  A
C2197     Br2204   1.930       .  S
C2198      C2199   1.407       .  A
C2199      C2200   1.402       .  A
C2199     Br2206   1.933       .  S
C2200      C2201   1.407       .  A
C2200     Br2205   1.918       .  S
C2201      C2202   1.412       .  A
C2202     Br2203   1.933       .  S
C2207      C2208   1.422       .  A
C2207      C2212   1.420       .  A
C2207     Br2214   1.940       .  S
C2208      C2209   1.413       .  A
C2209      C2210   1.394       .  A
C2209     Br2216   1.937       .  S
C2210      C2211   1.419       .  A
C2210     Br2215   1.936       .  S
C2211      C2212   1.433       .  A
C2212     Br2213   1.943       .  S
C2217      C2218   1.409       .  A
C2217      C2222   1.404       .  A
C2217     Br2224   1.933       .  S
C2218      C2219   1.410       .  A
C2219     Br2226   1.929       .  S
C2220      C2221   1.410       .  A
C2220     Br2225   1.924       .  S
C2222     Br2223   1.916       .  S
C2227      C2228   1.411       .  A
C2227      C2232   1.410       .  A
C2227     Br2234   1.932       .  S
C2228      C2229   1.411       .  A
C2229      C2230   1.406       .  A
C2229     Br2236   1.934       .  S
C2230      C2231   1.411       .  A
C2230     Br2235   1.926       .  S
C2231      C2232   1.413       .  A
C2232     Br2233   1.929       .  S
C2237      C2238   1.404       .  A
C2237      C2242   1.400       .  A
C2237     Br2244   1.926       .  S
C2238      C2239   1.411       .  A
C2239      C2240   1.415       .  A
C2239     Br2246   1.927       .  S
C2240      C2241   1.411       .  A
C2240     Br2245   1.924       .  S
C2241      C2242   1.408       .  A
C2242     Br2243   1.917       .  S
C2247      C2248   1.413       .  A
C2247      C2252   1.413       .  A
C2247     Br2254   1.931       .  S
C2248      C2249   1.412       .  A
C2249      C2250   1.405       .  A
C2249     Br2256   1.924       .  S
C2250      C2251   1.410       .  A
C2250     Br2255   1.927       .  S
C2251      C2252   1.415       .  A
C2252     Br2253   1.925       .  S
C2257      C2262   1.409       .  A
C2257     Br2264   1.934       .  S
C2258      C2259   1.413   1_545  A
C2259      C2260   1.408       .  A
C2259     Br2266   1.932       .  S
C2260      C2261   1.416       .  A
C2260     Br2265   1.931       .  S
C2262     Br2263   1.934       .  S
C2267      C2268   1.410       .  A
C2267      C2272   1.407       .  A
C2267     Br2274   1.932       .  S
C2268      C2269   1.410       .  A
C2269      C2270   1.410       .  A
C2269     Br2276   1.923       .  S
C2270      C2271   1.407       .  A
C2270     Br2275   1.927       .  S
C2271      C2272   1.411       .  A
C2272     Br2273   1.931       .  S
C2277      C2278   1.407       .  A
C2277      C2282   1.406       .  A
C2277     Br2284   1.932       .  S
C2278      C2279   1.411       .  A
C2279      C2280   1.409       .  A
C2279     Br2286   1.932       .  S
C2280      C2281   1.413       .  A
C2280     Br2285   1.929       .  S
C2281      C2282   1.413       .  A
C2282     Br2283   1.923       .  S
C2287      C2288   1.408       .  A
C2287      C2292   1.406       .  A
C2287     Br2294   1.936       .  S
C2288      C2289   1.412       .  A
C2289      C2290   1.412       .  A
C2289     Br2296   1.932       .  S
C2290      C2291   1.413       .  A
C2290     Br2295   1.923       .  S
C2291      C2292   1.414       .  A
C2291      C4688   1.491       .  S
C2292     Br5029   1.919       .  S
Br2293     C5028   1.919   1_455  S
C2297      C2298   1.416       .  A
C2297      C2302   1.401       .  A
C2297     Br2304   1.920       .  S
C2298      C2299   1.412       .  A
C2299      C2300   1.411       .  A
C2299     Br2306   1.934       .  S
C2300      C2301   1.417       .  A
C2300     Br2305   1.933       .  S
C2301      C2302   1.406       .  A
C2302     Br2303   1.938       .  S
C2307      C2308   1.415       .  A
C2307      C2312   1.413       .  A
C2307     Br2314   1.935       .  S
C2308      C2309   1.409       .  A
C2309      C2310   1.399       .  A
C2309     Br2316   1.937       .  S
C2310      C2311   1.421       .  A
C2310     Br2315   1.938       .  S
C2311      C2312   1.421       .  A
C2312     Br2313   1.937       .  S
C2317      C2318   1.410       .  A
C2317      C2322   1.405       .  A
C2317     Br2324   1.927       .  S
C2318      C2319   1.407   1_455  A
C2319      C2320   1.407   1_655  A
C2319     Br3694   1.932       .  S
C2320      C2321   1.416       .  A
C2320     Br2325   1.933   1_455  S
C2321      C2322   1.409       .  A
C2322     Br2323   1.931       .  S
Br2326     C3687   1.932       .  S
C2327      C2328   1.409       .  A
C2327      C2332   1.399       .  A
C2327     Br2334   1.938       .  S
C2328      C2329   1.416       .  A
C2329      C2330   1.414       .  A
C2329     Br2336   1.936       .  S
C2330      C2331   1.422       .  A
C2330     Br2335   1.936       .  S
C2331      C2332   1.423       .  A
C2332     Br2333   1.940       .  S
C2337      C2338   1.410       .  A
C2337      C2342   1.406       .  A
C2337     Br2344   1.934       .  S
C2338      C2339   1.414       .  A
C2339      C2340   1.409       .  A
C2340      C2341   1.413       .  A
C2341      C2342   1.412       .  A
C2342     Br2343   1.922       .  S
C2347      C2348   1.409       .  A
C2347      C2352   1.402       .  A
C2347     Br2354   1.933       .  S
C2348      C2349   1.415       .  A
C2349      C2350   1.411       .  A
C2349     Br2356   1.934       .  S
C2350      C2351   1.414       .  A
C2350     Br2355   1.929       .  S
C2351      C2352   1.416       .  A
C2352     Br2353   1.931       .  S
C2357     Br2364   1.935   1_545  S
C2358      C2359   1.414       .  A
C2359      C2360   1.413       .  A
C2359     Br2366   1.932       .  S
C2360      C2361   1.411       .  A
C2360     Br2365   1.919       .  S
C2361      C2362   1.416       .  A
C2367      C2368   1.408       .  A
C2367      C2372   1.407       .  A
C2368      C2369   1.408       .  A
C2369      C2370   1.404       .  A
C2369     Br2376   1.924   1_554  S
C2370      C2371   1.408       .  A
C2370     Br2375   1.930   1_554  S
C2371      C2372   1.408       .  A
C2377      C2378   1.419       .  A
C2377      C2382   1.401       .  A
C2377     Br2384   1.935       .  S
C2378      C2379   1.421       .  A
C2379      C2380   1.412       .  A
C2379     Br2386   1.938       .  S
C2380      C2381   1.416       .  A
C2380     Br2385   1.935       .  S
C2381      C2382   1.410       .  A
C2382     Br2383   1.936       .  S
C2387      C2388   1.408       .  A
C2387      C2392   1.401       .  A
C2387     Br2394   1.938       .  S
C2388      C2389   1.417       .  A
C2389      C2390   1.412       .  A
C2389     Br2396   1.933       .  S
C2390      C2391   1.415       .  A
C2390     Br2395   1.934       .  S
C2391      C2392   1.422       .  A
C2392     Br2393   1.935       .  S
C2397      C2398   1.416       .  A
C2397      C2402   1.412       .  A
C2397     Br2404   1.935       .  S
C2398      C2399   1.410       .  A
C2399      C2400   1.403       .  A
C2399     Br2406   1.937       .  S
C2400      C2401   1.419       .  A
C2400     Br2405   1.934       .  S
C2401      C2402   1.417       .  A
C2402     Br2403   1.935       .  S
C2407      C2408   1.414       .  A
C2407      C2412   1.408       .  A
C2407     Br2414   1.933       .  S
C2408      C2409   1.410       .  A
C2409      C2410   1.405       .  A
C2409     Br2416   1.934       .  S
C2410      C2411   1.410       .  A
C2410     Br2415   1.924       .  S
C2411      C2412   1.411       .  A
C2412     Br2413   1.931       .  S
C2417      C2418   1.424       .  A
C2417      C2422   1.412       .  A
C2417     Br2424   1.926       .  S
C2418      C2419   1.416       .  A
C2419      C2420   1.401       .  A
C2419     Br2426   1.920       .  S
C2420      C2421   1.403       .  A
C2420     Br2425   1.931       .  S
C2421      C2422   1.406       .  A
C2422     Br2423   1.929       .  S
C2427      C2428   1.421       .  A
C2427      C2432   1.414       .  A
C2427     Br2434   1.935       .  S
C2428      C2429   1.421       .  A
C2429      C2430   1.403       .  A
C2429     Br2436   1.928       .  S
C2430      C2431   1.422       .  A
C2430     Br2435   1.944       .  S
C2431      C2432   1.425       .  A
C2431      C4635   1.511       .  S
C2432     Br5169   1.936       .  S
Br2433     C5168   1.936   1_455  S
C2437      C2438   1.410       .  A
C2437      C2442   1.413       .  A
C2437     Br2444   1.924       .  S
C2438      C2439   1.412       .  A
C2439      C2440   1.406       .  A
C2439     Br2446   1.917       .  S
C2440      C2441   1.405       .  A
C2440     Br2445   1.932       .  S
C2441      C2442   1.411       .  A
C2442     Br2443   1.928       .  S
C2447      C2448   1.409       .  A
C2447      C2452   1.408       .  A
C2447     Br2454   1.927       .  S
C2448      C2449   1.408       .  A
C2449      C2450   1.406       .  A
C2449     Br2456   1.927       .  S
C2450      C2451   1.407       .  A
C2450     Br2455   1.927       .  S
C2451      C2452   1.407       .  A
C2452     Br2453   1.926       .  S
C2457      C2458   1.407       .  A
C2457      C2462   1.409       .  A
C2457     Br2464   1.927       .  S
C2458      C2459   1.410       .  A
C2459     Br2466   1.931       .  S
C2460      C2461   1.406       .  A
C2460     Br2465   1.924       .  S
C2462     Br2463   1.932   1_565  S
C2467      C2468   1.413       .  A
C2467      C2472   1.409       .  A
C2467     Br2474   1.933       .  S
C2468      C2469   1.410       .  A
C2469      C2470   1.405       .  A
C2469     Br2476   1.933       .  S
C2470      C2471   1.414       .  A
C2470     Br5211   1.933       .  S
C2471      C2472   1.415       .  A
C2471      C4529   1.483   1_455  S
C2472     Br2473   1.935   1_455  S
Br2475     C5206   1.933       .  S
C2477      C2478   1.422       .  A
C2477      C2482   1.401       .  A
C2477     Br2484   1.942       .  S
C2478      C2479   1.420       .  A
C2479      C2480   1.415       .  A
C2479     Br2486   1.933       .  S
C2480      C2481   1.417       .  A
C2480     Br2485   1.935       .  S
C2481      C2482   1.412       .  A
C2482     Br2483   1.935       .  S
C2487      C2488   1.411       .  A
C2487      C2492   1.406       .  A
C2487     Br2494   1.918       .  S
C2488      C2489   1.407       .  A
C2489      C2490   1.406       .  A
C2489     Br2496   1.927       .  S
C2490      C2491   1.411       .  A
C2490     Br2495   1.929       .  S
C2491      C2492   1.403       .  A
C2492     Br2493   1.929       .  S
C2497      C2498   1.411       .  A
C2497      C2502   1.413       .  A
C2497     Br2504   1.928       .  S
C2498      C2499   1.408       .  A
C2499      C2500   1.402       .  A
C2499     Br2506   1.926       .  S
C2500      C2501   1.408       .  A
C2500     Br2505   1.927       .  S
C2501      C2502   1.414       .  A
C2502     Br2503   1.927       .  S
C2507      C2508   1.417       .  A
C2507      C2512   1.400       .  A
C2507     Br2514   1.935       .  S
C2508      C2509   1.418       .  A
C2509      C2510   1.414       .  A
C2509     Br2516   1.933       .  S
C2510      C2511   1.417       .  A
C2510     Br2515   1.934       .  S
C2511      C2512   1.409       .  A
C2512     Br2513   1.925   1_565  S
C2517      C2518   1.410       .  A
C2517      C2522   1.408       .  A
C2517     Br2524   1.926       .  S
C2518      C2519   1.412       .  A
C2519      C2520   1.409       .  A
C2519     Br2526   1.932       .  S
C2520      C2521   1.410       .  A
C2520     Br2525   1.921       .  S
C2521      C2522   1.410       .  A
C2522     Br5259   1.926   1_455  S
Br2523     C5258   1.926       .  S
C2527      C2528   1.412       .  A
C2527      C2532   1.409       .  A
C2527     Br2534   1.929       .  S
C2528      C2529   1.407       .  A
C2529      C2530   1.405       .  A
C2529     Br2536   1.927       .  S
C2530      C2531   1.411       .  A
C2530     Br2535   1.928       .  S
C2531      C2532   1.411       .  A
C2532     Br2533   1.931       .  S
C2537      C2542   1.406       .  A
C2539      C2540   1.408   1_545  A
C2540      C2541   1.412       .  A
C2540     Br2545   1.935       .  S
C2541      C2542   1.410       .  A
C2542     Br2543   1.937       .  S
C2547      C2548   1.410       .  A
C2547      C2552   1.408       .  A
C2547     Br2554   1.924       .  S
C2548      C2549   1.409       .  A
C2549      C2550   1.407       .  A
C2549     Br2556   1.926       .  S
C2550      C2551   1.411       .  A
C2550     Br2555   1.932       .  S
C2551      C2552   1.409       .  A
C2552     Br2553   1.931       .  S
C2557      C5294   1.413       .  A
C2557      C2562   1.411       .  A
C2557     Br2564   1.931       .  S
C2558      C5293   1.413   1_655  A
C2558      C2559   1.411       .  A
C2559      C2560   1.405       .  A
C2559     Br2566   1.932       .  S
C2560      C5297   1.411       .  A
C2560     Br2565   1.931       .  S
C2561      C5296   1.411       .  A
C2561      C2562   1.412       .  A
C2562     Br2563   1.930       .  S
C2567      C2568   1.409       .  A
C2567      C2572   1.406       .  A
C2567     Br2574   1.926       .  S
C2568      C2569   1.412       .  A
C2569      C2570   1.408       .  A
C2569     Br2576   1.932       .  S
C2570      C2571   1.412       .  A
C2570     Br2575   1.932       .  S
C2571      C2572   1.412       .  A
C2572     Br2573   1.933       .  S
C2577      C2578   1.410       .  A
C2577      C2582   1.405       .  A
C2577     Br2584   1.937       .  S
C2578      C2579   1.417       .  A
C2579      C2580   1.409       .  A
C2579     Br2586   1.936       .  S
C2580      C2581   1.417       .  A
C2580     Br2585   1.933       .  S
C2581      C2582   1.418       .  A
C2582     Br2583   1.928       .  S
C2587      C2588   1.414       .  A
C2587      C2592   1.404       .  A
C2587     Br2594   1.923       .  S
C2588      C2589   1.412       .  A
C2589      C2590   1.412       .  A
C2589     Br2596   1.932       .  S
C2590      C2591   1.416       .  A
C2590     Br2595   1.933       .  S
C2591      C2592   1.409       .  A
C2592     Br2593   1.935       .  S
C2597      C2598   1.410       .  A
C2597      C2602   1.406       .  A
C2597     Br2604   1.932       .  S
C2598      C2599   1.408       .  A
C2599      C2600   1.408       .  A
C2599     Br2606   1.928   1_556  S
C2600      C2601   1.410       .  A
C2600     Br2605   1.927       .  S
C2601      C2602   1.409       .  A
C2602     Br2603   1.927       .  S
C2607      C2608   1.406   1_556  A
C2607      C2612   1.403   1_556  A
C2607     Br2614   1.940       .  S
C2608      C2609   1.412       .  A
C2609      C2610   1.409       .  A
C2609     Br2616   1.934       .  S
C2610      C2611   1.420       .  A
C2610     Br2615   1.931       .  S
C2611      C2612   1.423       .  A
C2612     Br2613   1.927   1_554  S
C2617      C2618   1.415       .  A
C2617      C2622   1.413       .  A
C2617     Br2624   1.929       .  S
C2618      C2619   1.410       .  A
C2618      C4150   1.497   1_455  S
C2619      C2620   1.403       .  A
C2619     Br5362   1.917   1_455  S
C2620      C2621   1.407       .  A
C2620     Br2625   1.925       .  S
C2621      C2622   1.414       .  A
C2622     Br2623   1.925       .  S
Br2626     C5355   1.917       .  S
C2627      C2628   1.418       .  A
C2627      C2632   1.421       .  A
C2627     Br2634   1.928       .  S
C2628      C2629   1.411       .  A
C2629      C2630   1.392       .  A
C2629     Br2636   1.931       .  S
C2630      C2631   1.402       .  A
C2630     Br2635   1.911       .  S
C2631      C2632   1.417       .  A
C2632     Br2633   1.928       .  S
C2637      C2638   1.411       .  A
C2637      C2642   1.408       .  A
C2637     Br2644   1.934       .  S
C2638      C2639   1.415       .  A
C2639      C2640   1.407       .  A
C2639     Br5382   1.937       .  S
C2640      C2641   1.416       .  A
C2640     Br5381   1.934       .  S
C2641      C2642   1.417       .  A
C2642     Br2643   1.931       .  S
Br2645     C5376   1.934   1_455  S
Br2646     C5375   1.937       .  S
C2647      C2648   1.417       .  A
C2647      C2652   1.409       .  A
C2647     Br2654   1.927       .  S
C2648      C2649   1.418       .  A
C2649      C2650   1.409       .  A
C2649     Br2656   1.933       .  S
C2650      C2651   1.415       .  A
C2650     Br2655   1.936       .  S
C2651      C2652   1.412       .  A
C2652     Br2653   1.935       .  S
C2657      C2658   1.408       .  A
C2657      C2662   1.413       .  A
C2657     Br2664   1.922       .  S
C2658      C2659   1.409       .  A
C2659      C2660   1.400       .  A
C2659     Br2666   1.924       .  S
C2660      C2661   1.411       .  A
C2660     Br2665   1.935       .  S
C2661      C2662   1.414       .  A
C2662     Br2663   1.930       .  S
C2667      C2668   1.409       .  A
C2667      C2672   1.403       .  A
C2667     Br2674   1.929       .  S
C2668      C2669   1.411       .  A
C2669      C2670   1.409       .  A
C2669     Br2676   1.929       .  S
C2670      C2671   1.410       .  A
C2670     Br2675   1.930       .  S
C2671      C2672   1.410       .  A
C2672     Br2673   1.933       .  S
C2677      C2678   1.411       .  A
C2677      C2682   1.413       .  A
C2677     Br2684   1.934       .  S
C2678      C2679   1.411       .  A
C2679      C2680   1.405       .  A
C2679     Br2686   1.931       .  S
C2680      C2681   1.419       .  A
C2680     Br2685   1.935       .  S
C2681      C2682   1.422       .  A
C2682     Br2683   1.931       .  S
C2687      C2688   1.407       .  A
C2687      C2692   1.398       .  A
C2687     Br2694   1.927       .  S
C2688      C2689   1.408       .  A
C2689     Br2696   1.926       .  S
C2690      C2691   1.410       .  A
C2690     Br2695   1.918       .  S
C2692     Br2693   1.912       .  S
C2697      C2698   1.410       .  A
C2697      C5438   1.405       .  A
C2697     Br2704   1.936       .  S
C2698      C2699   1.414       .  A
C2699      C2700   1.411       .  A
C2699     Br2706   1.935       .  S
C2700      C5437   1.415       .  A
C2700     Br2705   1.927       .  S
C2701      C5436   1.415   1_455  A
C2701      C2702   1.419       .  A
C2702      C5433   1.405   1_455  A
C2702     Br2703   1.932       .  S
C2707      C2708   1.408       .  A
C2708      C2709   1.404       .  A
C2709      C2710   1.408       .  A
C2709     Br2716   1.927       .  S
C2710      C2711   1.409       .  A
C2710     Br2715   1.916       .  S
C2712     Br2713   1.914   1_545  S
C2717      C2718   1.412       .  A
C2717      C2722   1.409       .  A
C2717     Br2724   1.932       .  S
C2718      C2719   1.408       .  A
C2719      C2720   1.405       .  A
C2719     Br2726   1.935       .  S
C2720      C2721   1.414       .  A
C2720     Br2725   1.929       .  S
C2721      C2722   1.412       .  A
C2722     Br2723   1.929       .  S
C2727      C2728   1.413       .  A
C2727      C2732   1.408       .  A
C2727     Br2734   1.933       .  S
C2728      C2729   1.408       .  A
C2729      C2730   1.406       .  A
C2729     Br2736   1.932       .  S
C2730      C2731   1.414       .  A
C2730     Br2735   1.927       .  S
C2731      C2732   1.414       .  A
C2732     Br2733   1.934       .  S
C2737      C2738   1.402       .  A
C2737      C2742   1.398       .  A
C2737      C4096   1.483       .  S
C2738      C2739   1.413       .  A
C2738      H2743   1.081       .  S
C2739      C2740   1.413       .  A
C2739      C2748   1.502       .  S
C2740      C2741   1.402       .  A
C2740      H2744   1.080   1_545  S
C2741      C2742   1.398       .  A
C2741      C5454   1.482   1_545  S
C2742      H2745   1.084       .  S
C2746      C2747   1.398       .  A
C2746      C2751   1.394       .  A
C2746      C4076   1.474       .  S
C2747      C2748   1.412       .  A
C2747      H4120   1.080       .  S
C2748      C2749   1.415       .  A
C2749      C2750   1.405       .  A
C2749      H2753   1.081       .  S
C2750      C2751   1.401       .  A
C2750      C4066   1.489       .  S
C2751      H2754   1.084       .  S
H2752      C4115   1.080       .  S
C2755      C2756   1.398       .  A
C2755      C2760   1.407       .  A
C2755      C4046   1.492       .  S
C2756      C2757   1.394       .  A
C2756      H2761   1.085       .  S
C2757      C2758   1.398       .  A
C2757      C4056   1.477       .  S
C2758      C2759   1.419       .  A
C2758      H2762   1.077       .  S
C2759      C2760   1.419       .  A
C2759      C2768   1.513       .  S
C2760      H2763   1.079       .  S
C2764      C2765   1.391       .  A
C2764      C2769   1.400       .  A
C2764      C4039   1.479       .  S
C2765      C2766   1.395       .  A
C2765      H2770   1.085       .  S
C2766      C2767   1.406       .  A
C2766      C4029   1.486       .  S
C2767      C2768   1.421       .  A
C2767      H2771   1.079       .  S
C2768      C2769   1.418       .  A
C2769      H2772   1.078       .  S
C2773      C2774   1.406       .  A
C2773      C2778   1.401       .  A
C2773      C4019   1.494       .  S
C2774      C2775   1.415       .  A
C2774      H2779   1.080       .  S
C2775      C2776   1.414       .  A
C2775      C2784   1.507       .  S
C2776      C2777   1.401       .  A
C2776      H2780   1.079       .  S
C2777      C2778   1.398       .  A
C2777      C4006   1.489       .  S
C2778      H2781   1.083       .  S
C2782      C2783   1.401       .  A
C2782      C2787   1.404       .  A
C2783      C2784   1.415       .  A
C2783      H2788   1.078       .  S
C2784      C2785   1.416       .  A
C2785      C2786   1.404       .  A
C2785      H2789   1.080       .  S
C2786      C2787   1.409       .  A
C2786      C3999   1.498       .  S
C2787      H2790   1.084   1_655  S
C2791      C2792   1.401   1_556  A
C2791      C2796   1.395       .  A
C2791      C3966   1.478       .  S
C2792      C2793   1.413       .  A
C2792      H2797   1.081       .  S
C2793      C2794   1.409       .  A
C2793      C2802   1.495       .  S
C2794      C2795   1.401       .  A
C2794      H2798   1.082       .  S
C2795      C2796   1.401   1_554  A
C2795      C3976   1.485       .  S
C2796      H2799   1.084       .  S
C2800      C2801   1.401       .  A
C2800      C2805   1.399       .  A
C2800      C3959   1.489       .  S
C2801      C2802   1.413       .  A
C2801      H2806   1.081       .  S
C2802      C2803   1.410       .  A
C2803      C2804   1.402       .  A
C2803      H2807   1.081       .  S
C2804      C2805   1.401       .  A
C2804      C3946   1.492       .  S
C2805      H2808   1.083       .  S
C2809      C2810   1.405       .  A
C2809      C3926   1.488       .  S
C2810      C2811   1.420       .  A
C2810      H2815   1.077       .  S
C2811      C2812   1.417       .  A
C2811      C2822   1.516       .  S
C2812      H2816   1.076       .  S
C2813      C2814   1.395       .  A
C2813      C3939   1.484       .  S
C2814      H2817   1.085       .  S
C2818      C2819   1.392       .  A
C2818      C2823   1.402       .  A
C2818      C3919   1.481       .  S
C2819      C2820   1.397       .  A
C2819      H2824   1.084       .  S
C2820      C2821   1.403       .  A
C2820      C3909   1.485       .  S
C2821      C2822   1.418       .  A
C2821      H2825   1.077       .  S
C2822      C2823   1.420       .  A
C2823      H2826   1.077       .  S
C2827      C2828   1.400       .  A
C2827      C2832   1.403       .  A
C2827      C3886   1.487       .  S
C2828      C2829   1.401       .  A
C2828      H2833   1.084       .  S
C2829      C2830   1.403       .  A
C2829      C3899   1.483       .  S
C2830      C2831   1.414       .  A
C2830      H2834   1.079       .  S
C2831      C2832   1.416       .  A
C2831      C2840   1.509       .  S
C2832      H4203   1.080       .  S
H2835      C4200   1.080       .  S
C2836      C2837   1.401       .  A
C2836      C2841   1.402       .  A
C2836      C3866   1.487       .  S
C2837      C4206   1.403   1_545  A
C2837      H2842   1.084       .  S
C2838      C4205   1.403       .  A
C2838      C4207   1.402       .  A
C2838      C3879   1.495       .  S
C2839      C4206   1.402   1_545  A
C2839      C2840   1.415       .  A
C2839      H2843   1.080       .  S
C2840      C2841   1.417       .  A
C2841      H2844   1.078       .  S
C2845      C2846   1.395       .  A
C2845      C2850   1.393       .  A
C2845      C3859   1.475       .  S
C2846      C2847   1.413       .  A
C2846      H2851   1.078       .  S
C2847      C2848   1.418       .  A
C2847      C2856   1.505       .  S
C2849      C3849   1.497       .  S
C2854      C2855   1.403       .  A
C2854      C2859   1.401       .  A
C2854      C3836   1.485       .  S
C2855      C2856   1.413       .  A
C2856      C2857   1.415       .  A
C2857      C2858   1.399       .  A
C2857      H2861   1.078       .  S
C2858      C2859   1.396       .  A
C2858      C3826   1.479       .  S
C2859      H2862   1.084       .  S
C2863      C2864   1.402       .  A
C2863      C2868   1.396       .  A
C2863      C3816   1.477       .  S
C2864      C2865   1.417       .  A
C2864      H2869   1.078       .  S
C2865      C2866   1.421       .  A
C2865      C2874   1.517       .  S
C2866      C2867   1.403       .  A
C2866      H2870   1.076       .  S
C2867      C2868   1.396       .  A
C2867      C3809   1.483       .  S
C2868      H2871   1.084       .  S
C2872      C2873   1.395       .  A
C2872      C2877   1.400       .  A
C2872      C3789   1.483       .  S
C2873      C2874   1.412       .  A
C2873      H2878   1.076       .  S
C2874      C2875   1.421       .  A
C2875      C2876   1.415       .  A
C2875      H2879   1.076       .  S
C2876      C2877   1.406       .  A
C2876      C3796   1.518       .  S
C2877      H2880   1.081       .  S
C2881      C2882   1.399       .  A
C2881      C2886   1.397       .  A
C2881      C3776   1.483       .  S
C2882      C2883   1.411       .  A
C2882      H2887   1.081       .  S
C2883      C2884   1.412       .  A
C2883      C2892   1.494       .  S
C2884      C2885   1.404       .  A
C2884      H2888   1.082       .  S
C2885      C2886   1.401       .  A
C2885      C3766   1.491       .  S
C2886      H2889   1.084       .  S
C2890      C2891   1.402       .  A
C2890      C2895   1.399       .  A
C2890      C3749   1.492       .  S
C2891      C2892   1.413       .  A
C2891      H2896   1.081       .  S
C2892      C2893   1.412       .  A
C2893      C2894   1.400       .  A
C2893      H2897   1.081       .  S
C2894      C2895   1.399       .  A
C2894      C3756   1.489       .  S
C2895      H2898   1.083       .  S
C2899      C2900   1.404   1_556  A
C2899      C2904   1.397   1_556  A
C2899      C5094   1.488       .  S
C2900      C2901   1.419       .  A
C2900      H2905   1.076   1_554  S
C2901      C2902   1.417       .  A
C2901      C2910   1.510       .  S
C2902      C2903   1.398       .  A
C2902      H2906   1.079       .  S
C2903      C2904   1.391       .  A
C2903      C3739   1.475       .  S
C2904      H2907   1.085   1_554  S
C2908      C2909   1.401       .  A
C2908      C2913   1.398       .  A
C2908      C3716   1.489       .  S
C2909      C2910   1.417       .  A
C2909      H2914   1.079       .  S
C2910      C2911   1.417       .  A
C2911      C2912   1.402       .  A
C2911      H2915   1.077       .  S
C2912      C2913   1.395       .  A
C2912      C3706   1.486       .  S
C2913      H2916   1.084       .  S
C2917      C2918   1.396       .  A
C2917      C2922   1.396       .  A
C2917      C3689   1.481       .  S
C2918      C2919   1.403       .  A
C2918      H2923   1.083       .  S
C2919      C2920   1.405       .  A
C2919      C3696   1.492       .  S
C2920      C2921   1.411       .  A
C2920      H2924   1.082       .  S
C2921      C2922   1.410       .  A
C2921      C2928   1.492       .  S
C2926      C2927   1.403       .  A
C2926      C2931   1.400       .  A
C2926      C3676   1.491       .  S
C2927      C2928   1.412       .  A
C2927      H2932   1.082       .  S
C2928      C2929   1.411       .  A
C2930      C3669   1.485       .  S
C2935      C2936   1.403       .  A
C2935      C2940   1.397       .  A
C2935      C3646   1.482       .  S
C2936      C2937   1.415       .  A
C2936      H2941   1.079       .  S
C2937      C2938   1.416       .  A
C2937      C2946   1.506       .  S
C2938      C2939   1.403       .  A
C2938      H2942   1.081       .  S
C2939      C2940   1.398       .  A
C2939      C3656   1.486       .  S
C2940      H2943   1.084       .  S
C2944      C2945   1.406       .  A
C2944      C4317   1.403   1_545  A
C2944      C4994   1.495       .  S
C2945      C2946   1.414       .  A
C2945      H2950   1.080       .  S
C2946      C2947   1.414       .  A
C2947      C4316   1.401   1_545  A
C2947      H2951   1.079       .  S
C2948      C4315   1.401       .  A
C2948      C2949   1.397       .  A
C2948      C3639   1.481       .  S
C2949      C4312   1.403       .  A
C2949      H2952   1.084       .  S
C2953      C2954   1.407       .  A
C2953      C2958   1.400       .  A
C2953      C3616   1.495       .  S
C2954      C2955   1.422       .  A
C2954      H2959   1.076       .  S
C2955      C2956   1.419       .  A
C2955      C2964   1.520       .  S
C2956      C2957   1.401       .  A
C2956      H2960   1.077       .  S
C2957      C2958   1.398       .  A
C2957      C3606   1.484       .  S
C2958      H2961   1.084       .  S
C2962      C2963   1.405       .  A
C2962      C2967   1.394       .  A
C2962      C3596   1.486       .  S
C2963      C2964   1.422       .  A
C2963      H2968   1.077       .  S
C2964      C2965   1.420       .  A
C2965      C2966   1.403       .  A
C2965      H2969   1.076       .  S
C2966      C2967   1.393       .  A
C2966      C3586   1.479       .  S
C2967      H2970   1.085       .  S
C2971      C2972   1.414       .  A
C2971      C2976   1.405       .  A
C2971      C3576   1.526       .  S
C2972      C2973   1.419       .  A
C2972      H2977   1.073       .  S
C2973      C2974   1.409       .  A
C2973      C2982   1.503       .  S
C2974      C2975   1.392       .  A
C2974      H2978   1.080       .  S
C2975      C2976   1.392       .  A
C2975      C3566   1.474       .  S
C2976      H2979   1.075       .  S
C2980      C2981   1.404       .  A
C2980      C4353   1.401   1_545  A
C2980      C3556   1.493       .  S
C2981      C2982   1.416       .  A
C2981      H2986   1.080       .  S
C2982      C2983   1.411       .  A
C2983      C4352   1.399   1_545  A
C2983      H2987   1.080       .  S
C2984      C4351   1.399       .  A
C2984      C2985   1.398       .  A
C2984      C3546   1.483       .  S
C2985      C4348   1.401       .  A
C2985      H2988   1.084       .  S
C2989      C2990   1.399       .  A
C2989      C2994   1.395       .  A
C2989      C4897   1.483       .  S
C2990      C2991   1.419       .  A
C2990      H2995   1.075       .  S
C2991      C2992   1.421       .  A
C2991      C3000   1.520       .  S
C2992      C2993   1.407       .  A
C2992      H2996   1.076       .  S
C2993      C2994   1.401       .  A
C2993      C3539   1.490       .  S
C2994      H2997   1.084       .  S
C2998      C2999   1.405       .  A
C2998      C3003   1.394       .  A
C2998      C3506   1.478       .  S
C2999      C3000   1.420       .  A
C2999      H3004   1.077       .  S
C3000      C3001   1.419       .  A
C3001      C3002   1.399       .  A
C3001      H3005   1.075       .  S
C3002      C3003   1.391       .  A
C3002      C3516   1.475       .  S
C3003      H3006   1.085       .  S
C3007      C3008   1.396       .  A
C3007      C3012   1.395       .  A
C3007      C3489   1.480       .  S
C3008      C3009   1.415       .  A
C3008      H3013   1.077       .  S
C3009      C3010   1.418       .  A
C3009      C3018   1.510       .  S
C3010      C3011   1.409       .  A
C3010      H3014   1.079       .  S
C3011      C3012   1.402       .  A
C3011      C3499   1.499       .  S
C3012      H3015   1.084       .  S
C3016      C3017   1.405       .  A
C3016      C3021   1.395       .  A
C3016      C3476   1.480       .  S
C3017      C3018   1.419       .  A
C3017      H3022   1.080       .  S
C3018      C3019   1.417       .  A
C3019      C3020   1.399       .  A
C3019      H3023   1.078       .  S
C3020      C3021   1.390       .  A
C3020      C3466   1.475       .  S
C3021      H3024   1.085       .  S
C3025      C3026   1.408   1_556  A
C3025      C3030   1.400       .  A
C3025      C3459   1.501       .  S
C3026      C3027   1.421       .  A
C3026      H3031   1.075   1_554  S
C3027      C3028   1.413       .  A
C3027      C3036   1.513       .  S
C3028      C3029   1.398       .  A
C3028      H3032   1.079       .  S
C3029      C3030   1.396   1_554  A
C3029      C3446   1.481       .  S
C3030      H3033   1.084       .  S
C3034      C3035   1.412       .  A
C3034      C3039   1.406       .  A
C3035      C3036   1.421       .  A
C3035      H3040   1.077       .  S
C3036      C3037   1.411       .  A
C3037      C3038   1.394       .  A
C3037      H3041   1.077       .  S
C3038      C3039   1.400       .  A
C3038      C3436   1.479       .  S
C3039      H3042   1.081       .  S
C3043      C3044   1.411       .  A
C3043      C3048   1.406       .  A
C3043      C3409   1.507       .  S
C3044      C3045   1.420       .  A
C3044      H3049   1.079       .  S
C3045      C3046   1.411       .  A
C3045      C3054   1.511       .  S
C3046      C3047   1.397       .  A
C3046      H3050   1.077       .  S
C3047      C3048   1.402       .  A
C3047      C3419   1.486       .  S
C3048      H3051   1.084       .  S
C3052      C3053   1.407       .  A
C3053      C3054   1.421       .  A
C3053      H3058   1.079       .  S
C3054      C3055   1.414       .  A
C3055      H3059   1.079       .  S
C3056      C3057   1.402       .  A
C3056      C3399   1.481       .  S
C3057      H3060   1.084       .  S
O3061     Zr3097   2.451       .  S
O3061      C3072   1.294       .  A
O3062     Zr3096   2.469       .  S
O3062      C3073   1.296       .  A
O3063     Zr3069   2.468       .  S
O3063      C3074   1.298       .  A
O3064     Zr3069   2.485       .  S
O3064      C3075   1.302       .  A
O3065     Zr3099   2.409       .  S
O3065      C3075   1.287       .  A
O3066     Zr3098   2.429       .  S
O3066      C3074   1.289       .  A
O3067     Zr3069   2.410       .  S
O3067      C3073   1.284       .  A
O3068     Zr3069   2.426       .  S
O3068      C3072   1.289       .  A
Zr3069     O3070   2.331       .  S
Zr3069     O3071   2.330       .  S
Zr3069     O3079   2.345       .  S
Zr3069     O3077   2.339       .  S
O3070     Zr3096   2.321       .  S
O3070     Zr3099   2.351       .  S
O3071     Zr3097   2.332       .  S
O3071     Zr3098   2.345       .  S
C3072      C4099   1.485       .  S
C3073      C3846   1.497       .  S
C3074      C3786   1.498       .  S
C3075      C3396   1.483       .  S
H3076      O3077   0.965       .  S
O3077     Zr3096   2.344       .  S
O3077     Zr3098   2.349       .  S
H3078      O3079   0.965       .  S
O3079     Zr3097   2.337       .  S
O3079     Zr3099   2.353       .  S
O3080     Zr3096   2.441       .  S
O3080      C3103   1.293       .  A
O3081     Zr3097   2.451       .  S
O3081      C3104   1.294       .  A
O3082     Zr3098   2.483       .  S
O3082      C3105   1.302       .  A
O3083     Zr3099   2.426       .  S
O3083      C3106   1.287       .  A
O3084     Zr3099   2.481       .  S
O3084      C3107   1.300       .  A
O3085     Zr3098   2.452       .  S
O3085      C3108   1.293       .  A
O3086     Zr3100   2.438       .  S
O3086      C3109   1.290       .  A
O3087     Zr3100   2.396       .  S
O3087      C3110   1.282       .  A
O3088     Zr3098   2.467       .  S
O3088      C3109   1.298       .  A
O3089     Zr3099   2.490       .  S
O3089      C3110   1.303       .  A
O3090     Zr3096   2.418       .  S
O3090      C3105   1.288       .  A
O3091     Zr3097   2.422       .  S
O3091      C3108   1.285       .  A
O3092     Zr3097   2.427       .  S
O3092      C3107   1.288       .  A
O3093     Zr3096   2.460       .  S
O3093      C3106   1.295       .  A
O3094     Zr3100   2.443       .  S
O3094      C3103   1.292       .  A
O3095     Zr3100   2.438       .  S
O3095      C3104   1.291       .  A
Zr3096     O3102   2.362       .  S
Zr3096     O3114   2.345       .  S
Zr3097     O3101   2.345       .  S
Zr3097     O3112   2.354       .  S
Zr3098     O3102   2.338       .  S
Zr3098     O3112   2.344       .  S
Zr3099     O3101   2.322       .  S
Zr3099     O3114   2.341       .  S
Zr3100     O3101   2.349       .  S
Zr3100     O3102   2.336       .  S
Zr3100     O3114   2.347       .  S
Zr3100     O3112   2.339       .  S
C3103      C3969   1.476       .  S
C3104      C3829   1.475       .  S
C3105      C4026   1.486       .  S
C3106      C3456   1.507       .  S
C3107      C4059   1.483       .  S
C3108      C3579   1.511       .  S
C3109      C3416   1.490       .  S
C3110      C3729   1.488       .  S
H3111      O3112   0.965       .  S
H3113      O3114   0.966       .  S
O3115     Zr3151   2.435   1_556  S
O3115      C3126   1.291       .  A
O3116     Zr3150   2.441       .  S
O3116      C3127   1.291       .  A
O3117     Zr3123   2.436       .  S
O3117      C3128   1.291       .  A
O3118     Zr4491   2.438   1_546  S
O3118      C3129   1.292       .  A
O3119     Zr4521   2.455   1_546  S
O3120     Zr3152   2.449       .  S
O3120      C3128   1.294       .  A
O3121     Zr4491   2.429   1_545  S
O3121      C3127   1.290       .  A
O3122     Zr3123   2.432   1_556  S
O3122      C3126   1.290       .  A
Zr3123     O4486   2.438   1_554  S
Zr3123     O4489   2.429       .  S
Zr3123     O4492   2.332       .  S
Zr3123     O3125   2.332       .  S
Zr3123     O3133   2.336   1_554  S
Zr3123     O3131   2.340       .  S
O3124     Zr4491   2.332   1_545  S
O3124     Zr3150   2.340       .  S
O3125     Zr3151   2.335       .  S
O3125     Zr3152   2.341       .  S
C3126      C4036   1.475       .  S
C3127      C3449   1.470       .  S
C3128      C3709   1.485       .  S
C3129      C3386   1.498       .  S
H3130      O3131   0.965       .  S
O3131     Zr4518   2.348       .  S
O3131     Zr3152   2.348       .  S
H3132      O3133   0.965       .  S
O3133     Zr3151   2.338   1_556  S
O3134      C4525   1.296   1_545  A
O3135     Zr3151   2.438       .  S
O3135      C3158   1.291       .  A
O3136     Zr3152   2.461       .  S
O3136      C3159   1.297       .  A
O3137     Zr4521   2.443   1_545  S
O3137      C3160   1.292       .  A
O3138     Zr3153   2.437   1_556  S
O3139     Zr3152   2.451       .  S
O3139      C3162   1.293       .  A
O3140     Zr3154   2.433       .  S
O3140      C3163   1.291       .  A
O3141      C3164   1.296       .  A
O3142     Zr3152   2.471       .  S
O3142      C3163   1.299       .  A
O3143     Zr3153   2.426       .  S
O3143      C3164   1.289       .  A
O3144     Zr3150   2.438       .  S
O3144      C4527   1.290   1_545  A
O3145     Zr3151   2.431       .  S
O3145      C3162   1.290       .  A
O3146     Zr3151   2.439   1_556  S
O3146      C3161   1.292       .  A
O3147      C3160   1.292       .  A
O3148      C3157   1.292       .  A
O3149     Zr3154   2.450       .  S
O3149      C3158   1.294       .  A
Zr3150     O4499   2.348   1_545  S
Zr3150     O4524   2.339   1_545  S
Zr3151     O3155   2.340       .  S
Zr3151     O3166   2.339       .  S
Zr3152     O3156   2.344       .  S
Zr3152     O3166   2.344       .  S
Zr3153     O4487   2.455   1_554  S
Zr3153     O4505   2.443       .  S
Zr3153     O3168   2.355       .  S
Zr3154     O3155   2.341       .  S
Zr3154     O3156   2.350       .  S
Zr3154     O3166   2.347       .  S
O3156     Zr4518   2.339       .  S
C3157      C5257   1.489       .  S
C3157      O4502   1.296       .  A
C3158      C3439   1.483       .  S
C3159      C3629   1.498       .  S
C3159      O4512   1.290       .  A
C3160      C3949   1.492       .  S
C3162      C3979   1.498       .  S
C3163      C3479   1.486       .  S
C3164      C3736   1.474       .  S
H3165      O3166   0.965       .  S
H3167      O4536   0.966       .  S
O3168      H4535   0.966       .  S
O3169     Zr3205   2.460       .  S
O3169      C3180   1.296       .  A
O3170     Zr3204   2.474       .  S
O3170      C3181   1.299       .  A
O3171     Zr3177   2.478       .  S
O3171      C3182   1.300       .  A
O3172     Zr3177   2.454       .  S
O3172      C3183   1.295       .  A
O3173     Zr3207   2.426       .  S
O3173      C3183   1.289       .  A
O3174     Zr3206   2.415       .  S
O3174      C3182   1.287       .  A
O3175     Zr3177   2.420       .  S
O3175      C3181   1.288       .  A
O3176     Zr3177   2.436       .  S
O3176      C3180   1.290       .  A
Zr3177     O3178   2.347       .  S
Zr3177     O3179   2.340       .  S
Zr3177     O3187   2.344       .  S
Zr3177     O3185   2.346       .  S
O3178     Zr3204   2.328       .  S
O3178     Zr3207   2.337       .  S
O3179     Zr3205   2.350       .  S
O3179     Zr3206   2.352       .  S
C3180      C4016   1.497       .  S
C3181      C3589   1.479       .  S
C3182      C3526   1.481       .  S
C3183      C3666   1.485       .  S
H3184      O3185   0.966       .  S
O3185     Zr3204   2.346       .  S
O3185     Zr3206   2.343       .  S
H3186      O3187   0.965       .  S
O3187     Zr3205   2.341       .  S
O3187     Zr3207   2.341       .  S
O3188     Zr3204   2.445       .  S
O3188      C3211   1.293       .  A
O3189     Zr3205   2.458       .  S
O3189      C3212   1.295       .  A
O3190     Zr3206   2.489       .  S
O3190      C3213   1.302       .  A
O3191     Zr3207   2.447       .  S
O3191      C3214   1.293       .  A
O3192     Zr3207   2.441       .  S
O3192      C3215   1.292       .  A
O3193     Zr3206   2.456       .  S
O3193      C3216   1.296       .  A
O3194     Zr3208   2.459       .  S
O3194      C3217   1.295       .  A
O3195     Zr3208   2.449       .  S
O3195      C3218   1.295       .  A
O3196     Zr3206   2.418       .  S
O3196      C3217   1.285       .  A
O3197     Zr3207   2.422       .  S
O3197      C3218   1.288       .  A
O3198     Zr3204   2.399       .  S
O3198      C3213   1.283       .  A
O3199     Zr3205   2.430       .  S
O3199      C3216   1.290       .  A
O3200     Zr3205   2.438       .  S
O3200      C3215   1.292       .  A
O3201     Zr3204   2.435       .  S
O3201      C3214   1.291       .  A
O3202     Zr3208   2.442       .  S
O3202      C3211   1.293       .  A
O3203     Zr3208   2.437       .  S
O3203      C3212   1.292       .  A
Zr3204     O3210   2.348       .  S
Zr3204     O3222   2.341       .  S
Zr3205     O3209   2.341       .  S
Zr3205     O3220   2.344       .  S
Zr3206     O3210   2.332       .  S
Zr3206     O3220   2.344       .  S
Zr3207     O3209   2.340       .  S
Zr3207     O3222   2.338       .  S
Zr3208     O3209   2.346       .  S
Zr3208     O3210   2.339       .  S
Zr3208     O3222   2.345       .  S
Zr3208     O3220   2.335       .  S
C3211      C3869   1.481       .  S
C3212      C3609   1.482       .  S
C3213      C3906   1.492       .  S
C3214      C3649   1.484       .  S
C3215      C3936   1.478       .  S
C3216      C3779   1.478       .  S
C3217      C3699   1.500       .  S
C3218      C3486   1.478       .  S
H3219      O3220   0.965       .  S
H3221      O3222   0.966       .  S
O3223     Zr3259   2.447       .  S
O3223      C3234   1.293       .  A
O3224     Zr3258   2.460       .  S
O3224      C3235   1.296       .  A
O3225     Zr3231   2.446       .  S
O3225      C3236   1.293       .  A
O3226     Zr3231   2.440       .  S
O3226      C3237   1.292       .  A
O3227     Zr3261   2.442       .  S
O3227      C3237   1.291       .  A
O3228     Zr3260   2.433       .  S
O3228      C3236   1.291       .  A
O3229     Zr3231   2.427       .  S
O3229      C3235   1.289       .  A
O3230     Zr3231   2.434       .  S
O3230      C3234   1.291       .  A
Zr3231     O3232   2.342       .  S
Zr3231     O3233   2.340       .  S
Zr3231     O3241   2.339       .  S
Zr3231     O3239   2.342       .  S
O3232     Zr3258   2.347       .  S
O3232     Zr3261   2.341       .  S
O3233     Zr3259   2.342       .  S
O3233     Zr3260   2.347       .  S
C3234      C4089   1.482       .  S
C3235      C3856   1.475       .  S
C3236      C3549   1.481       .  S
C3237      C4049   1.498       .  S
H3238      O3239   0.965       .  S
O3239     Zr3258   2.345       .  S
O3239     Zr3260   2.337       .  S
H3240      O3241   0.966       .  S
O3241     Zr3259   2.346       .  S
O3241     Zr3261   2.339       .  S
O3242     Zr3258   2.470       .  S
O3242      C3265   1.298       .  A
O3243     Zr3259   2.434       .  S
O3243      C3266   1.290       .  A
O3244     Zr3260   2.448       .  S
O3244      C3267   1.291       .  A
O3245     Zr3261   2.463       .  S
O3245      C3268   1.296       .  A
O3246     Zr3261   2.484       .  S
O3246      C3269   1.301       .  A
O3247     Zr3260   2.433       .  S
O3247      C3270   1.290       .  A
O3248     Zr3262   2.455       .  S
O3248      C3271   1.296       .  A
O3249     Zr3262   2.463       .  S
O3249      C3272   1.296       .  A
O3250     Zr3260   2.437       .  S
O3250      C3271   1.291       .  A
O3251     Zr3261   2.422       .  S
O3251      C3272   1.289       .  A
O3252     Zr3258   2.436       .  S
O3252      C3267   1.289       .  A
O3253     Zr3259   2.450       .  S
O3253      C3270   1.294       .  A
O3254     Zr3259   2.425       .  S
O3254      C3269   1.289       .  A
O3255     Zr3258   2.443       .  S
O3255      C3268   1.292       .  A
O3256     Zr3262   2.417       .  S
O3256      C3265   1.287       .  A
O3257     Zr3262   2.440       .  S
O3257      C3266   1.292       .  A
Zr3258     O3264   2.340       .  S
Zr3258     O3276   2.333       .  S
Zr3259     O3263   2.345       .  S
Zr3259     O3274   2.340       .  S
Zr3260     O3264   2.341       .  S
Zr3260     O3274   2.345       .  S
Zr3261     O3263   2.348       .  S
Zr3261     O3276   2.348       .  S
Zr3262     O3263   2.341       .  S
Zr3262     O3264   2.342       .  S
Zr3262     O3276   2.342       .  S
Zr3262     O3274   2.337       .  S
C3265      C4069   1.493       .  S
C3266      C3746   1.494       .  S
C3268      C3406   1.506       .  S
C3269      C3806   1.486       .  S
C3270      C3509   1.472       .  S
C3271      C3989   1.487       .  S
C3272      C3569   1.472       .  S
H3273      O3274   0.965       .  S
H3275      O3276   0.965       .  S
O3277     Zr3313   2.433       .  S
O3277      C3288   1.291       .  A
O3278     Zr3312   2.444       .  S
O3278      C3289   1.292       .  A
O3279     Zr3285   2.422       .  S
O3279      C3290   1.288       .  A
O3280     Zr3285   2.440       .  S
O3280      C3291   1.290       .  A
O3281     Zr3315   2.428       .  S
O3281      C3291   1.288       .  A
O3282     Zr3314   2.462       .  S
O3282      C3290   1.297       .  A
O3283     Zr3285   2.454       .  S
O3283      C3289   1.295       .  A
O3284     Zr3285   2.457       .  S
O3284      C3288   1.296       .  A
Zr3285     O3286   2.342       .  S
Zr3285     O3287   2.341       .  S
Zr3285     O3295   2.335       .  S
Zr3285     O3293   2.349       .  S
O3286     Zr3312   2.338       .  S
O3286     Zr3315   2.335       .  S
O3287     Zr3313   2.345       .  S
O3287     Zr3314   2.342       .  S
C3288      C3956   1.486       .  S
C3289      C3636   1.478       .  S
C3290      C3719   1.488       .  S
C3291      C3496   1.498       .  S
H3292      O3293   0.966       .  S
O3293     Zr3312   2.345       .  S
O3293     Zr3314   2.338       .  S
H3294      O3295   0.965       .  S
O3295     Zr3313   2.351       .  S
O3295     Zr3315   2.348       .  S
O3296     Zr3312   2.436       .  S
O3296      C3319   1.291       .  A
O3297     Zr3313   2.453       .  S
O3297      C3320   1.294       .  A
O3298     Zr3314   2.454       .  S
O3298      C3321   1.295       .  A
O3299     Zr3315   2.452       .  S
O3299      C3322   1.295       .  A
O3300     Zr3315   2.451       .  S
O3300      C3323   1.294       .  A
O3301     Zr3314   2.424       .  S
O3301      C3324   1.286       .  A
O3302     Zr3316   2.434       .  S
O3302      C3325   1.291       .  A
O3303     Zr3316   2.424       .  S
O3303      C3326   1.287       .  A
O3304     Zr3314   2.460       .  S
O3304      C3325   1.297       .  A
O3305     Zr3315   2.444       .  S
O3305      C3326   1.293       .  A
O3306     Zr3312   2.421       .  S
O3306      C3321   1.287       .  A
O3307     Zr3313   2.464       .  S
O3307      C3324   1.294       .  A
O3308     Zr3313   2.439       .  S
O3308      C3323   1.292       .  A
O3309     Zr3312   2.442       .  S
O3309      C3322   1.292       .  A
O3310     Zr3316   2.454       .  S
O3310      C3319   1.295       .  A
O3311     Zr3316   2.450       .  S
O3311      C3320   1.294       .  A
Zr3312     O3318   2.341       .  S
Zr3312     O3330   2.339       .  S
Zr3313     O3317   2.344       .  S
Zr3313     O3328   2.331       .  S
Zr3314     O3318   2.341       .  S
Zr3314     O3328   2.350       .  S
Zr3315     O3317   2.344       .  S
Zr3315     O3330   2.339       .  S
Zr3316     O3317   2.338       .  S
Zr3316     O3318   2.341       .  S
Zr3316     O3330   2.344       .  S
Zr3316     O3328   2.339       .  S
C3319      C3916   1.477       .  S
C3321      C3876   1.491       .  S
C3322      C3619   1.488       .  S
C3323      C3896   1.475       .  S
C3324      C3429   1.514       .  S
C3325      C3469   1.476       .  S
C3326      C3679   1.495       .  S
H3327      O3328   0.964       .  S
H3329      O3330   0.966       .  S
O3331     Zr3367   2.479       .  S
O3331      C3342   1.300   1_545  A
O3332     Zr3366   2.464       .  S
O3332      C3343   1.297       .  A
O3333     Zr3339   2.461       .  S
O3333      C3344   1.296       .  A
O3334     Zr3339   2.480       .  S
O3334      C3345   1.300       .  A
O3335     Zr3369   2.405       .  S
O3335      C3345   1.284       .  A
O3336     Zr4736   2.428       .  S
O3336      C3344   1.290       .  A
O3337     Zr3339   2.407       .  S
O3337      C3343   1.284       .  A
O3338     Zr3339   2.417       .  S
O3338      C4710   1.287       .  A
Zr3339     O3340   2.333       .  S
Zr3339     O3341   2.341       .  S
Zr3339     O3349   2.343       .  S
Zr3339     O3347   2.344       .  S
O3340     Zr3366   2.332       .  S
O3340     Zr3369   2.333       .  S
O3341     Zr4735   2.347       .  S
O3341     Zr4736   2.345       .  S
C3342      C4079   1.480   1_565  S
C3342      O4706   1.287       .  A
C3343      C3759   1.491       .  S
C3344      C3536   1.484       .  S
C3345      C3819   1.474       .  S
H3346      O3347   0.966       .  S
O3347     Zr3366   2.340       .  S
O3347     Zr4736   2.349       .  S
H3348      O3349   0.966       .  S
O3349     Zr4735   2.338       .  S
O3349     Zr3369   2.349       .  S
O3350     Zr3366   2.444       .  S
O3350      C3373   1.293       .  A
O3351      C3374   1.296       .  A
O3352     Zr4736   2.451       .  S
O3352      C3375   1.295       .  A
O3353     Zr3369   2.437       .  S
O3353      C3376   1.291       .  A
O3354      C4745   1.287       .  A
O3355     Zr3368   2.468   1_545  S
O3355      C3378   1.298       .  A
O3356     Zr4738   2.440   1_545  S
O3356      C3379   1.292       .  A
O3357     Zr3370   2.434       .  S
O3357      C3380   1.290       .  A
O3358     Zr3368   2.433   1_545  S
O3359      C3380   1.291       .  A
O3360     Zr3366   2.439       .  S
O3360      C3375   1.293       .  A
O3361     Zr3367   2.426       .  S
O3361      C3378   1.289       .  A
O3362      C3377   1.296   1_545  A
O3363     Zr3366   2.439       .  S
O3363      C3376   1.292       .  A
O3364     Zr3370   2.442       .  S
O3365     Zr4738   2.426   1_545  S
O3365      C3374   1.289       .  A
Zr3366     O3372   2.351       .  S
Zr3366     O3384   2.348       .  S
Zr3367     O4709   2.347   1_545  S
Zr3367     O4717   2.338   1_545  S
Zr3367     O3382   2.348       .  S
Zr3368     O4704   2.428       .  S
Zr3368     O4720   2.451       .  S
Zr3368     O4709   2.345       .  S
Zr3368     O4715   2.349       .  S
Zr3368     O4740   2.345       .  S
Zr3368     O3382   2.336   1_565  S
Zr3369     O3384   2.338       .  S
Zr3370     O4724   2.440       .  S
Zr3370     O4733   2.426       .  S
Zr3370     O3371   2.343       .  S
O3372     Zr4736   2.345       .  S
C3373      C3929   1.481       .  S
C3374      C3769   1.491       .  S
C3375      C3599   1.483       .  S
C3376      C4009   1.488       .  S
C3377      C3559   1.492       .  S
C3377      O4722   1.287       .  A
C3378      C3996   1.490       .  S
C3379      C3686   1.472       .  S
C3380      C3519   1.469       .  S
H3383      O3384   0.966       .  S
C3385      C3390   1.416       .  A
C3385     Br3392   1.934       .  S
C3386      C3387   1.417       .  A
C3387      C3388   1.406       .  A
C3387     Br3394   1.932   1_545  S
C3388      C3389   1.411       .  A
C3388     Br3393   1.928       .  S
C3390     Br3391   1.932       .  S
C3395      C3396   1.409       .  A
C3395      C3400   1.396       .  A
C3395     Br3402   1.922       .  S
C3396      C3397   1.414       .  A
C3397      C3398   1.415       .  A
C3397     Br3404   1.924       .  S
C3398      C3399   1.409       .  A
C3399      C3400   1.403       .  A
C3400     Br3401   1.927       .  S
C3405      C3406   1.425       .  A
C3405      C3410   1.416       .  A
C3405     Br3412   1.932       .  S
C3406      C3407   1.419       .  A
C3407      C3408   1.405       .  A
C3407     Br3414   1.935       .  S
C3408      C3409   1.411       .  A
C3408     Br3413   1.921       .  S
C3409      C3410   1.417       .  A
C3410     Br3411   1.934       .  S
C3415      C3416   1.412       .  A
C3415      C3420   1.411       .  A
C3415     Br3422   1.918       .  S
C3416      C3417   1.409       .  A
C3417      C3418   1.402       .  A
C3417     Br3424   1.913       .  S
C3418      C3419   1.406       .  A
C3418     Br3423   1.927       .  S
C3419      C3420   1.412       .  A
C3420     Br3421   1.928       .  S
C3425      C3426   1.419       .  A
C3425      C3430   1.404       .  A
C3425     Br3432   1.933       .  S
C3426      C3427   1.421       .  A
C3427      C3428   1.416       .  A
C3428      C3429   1.424       .  A
C3428     Br3433   1.934       .  S
C3429      C3430   1.427       .  A
C3430     Br3431   1.948       .  S
C3435      C3436   1.406       .  A
C3435      C3440   1.401       .  A
C3436      C3437   1.405       .  A
C3437      C3438   1.412       .  A
C3437     Br3444   1.928       .  S
C3438      C3439   1.419       .  A
C3438     Br3443   1.927       .  S
C3439      C3440   1.409       .  A
C3445      C3446   1.416       .  A
C3445      C3450   1.408       .  A
C3445     Br3452   1.930       .  S
C3446      C3447   1.407       .  A
C3447      C3448   1.403       .  A
C3448      C3449   1.409       .  A
C3449      C3450   1.405       .  A
C3450     Br3451   1.930       .  S
C3455      C3456   1.422       .  A
C3455      C3460   1.402       .  A
C3455     Br3462   1.939       .  S
C3456      C3457   1.423       .  A
C3457      C3458   1.417       .  A
C3457     Br3464   1.936       .  S
C3458      C3459   1.417       .  A
C3458     Br3463   1.935       .  S
C3459      C3460   1.413       .  A
C3460     Br3461   1.938       .  S
C3465      C3466   1.404       .  A
C3465      C3470   1.404       .  A
C3465     Br3472   1.932       .  S
C3466      C3467   1.411       .  A
C3467     Br3474   1.930       .  S
C3468      C3469   1.408       .  A
C3468     Br3473   1.925       .  S
C3475      C3476   1.409       .  A
C3475      C3480   1.409       .  A
C3475     Br3482   1.931       .  S
C3476      C3477   1.409       .  A
C3477      C3478   1.405       .  A
C3477     Br3484   1.934       .  S
C3478      C3479   1.411       .  A
C3478     Br3483   1.919       .  S
C3479      C3480   1.410       .  A
C3480     Br3481   1.917       .  S
C3485      C3486   1.418       .  A
C3485      C3490   1.410       .  A
C3485     Br3492   1.932       .  S
C3486      C3487   1.410       .  A
C3487      C3488   1.399       .  A
C3487     Br3494   1.931       .  S
C3488      C3489   1.406       .  A
C3488     Br3493   1.927       .  S
C3489      C3490   1.407       .  A
C3490     Br3491   1.928       .  S
C3495      C3496   1.421       .  A
C3495      C3500   1.400       .  A
C3495     Br3502   1.944       .  S
C3496      C3497   1.424       .  A
C3497      C3498   1.414       .  A
C3497     Br3504   1.936       .  S
C3498      C3499   1.416       .  A
C3498     Br3503   1.935       .  S
C3499      C3500   1.412       .  A
C3500     Br3501   1.927       .  S
C3505      C3506   1.409       .  A
C3505      C3510   1.405       .  A
C3505     Br3512   1.930       .  S
C3506      C3507   1.409       .  A
C3507      C3508   1.408       .  A
C3507     Br3514   1.930       .  S
C3508      C3509   1.410       .  A
C3508     Br3513   1.930       .  S
C3509      C3510   1.408       .  A
C3510     Br3511   1.926       .  S
C3515      C3516   1.407       .  A
C3515      C3520   1.406       .  A
C3515     Br3522   1.929       .  S
C3516      C3517   1.409       .  A
C3517      C3518   1.406       .  A
C3517     Br4892   1.929       .  S
C3518      C3519   1.410       .  A
C3518     Br4891   1.934       .  S
C3519      C3520   1.407       .  A
C3520     Br3521   1.925       .  S
Br3523     C4886   1.934   1_545  S
Br3524     C4885   1.929       .  S
C3525      C3526   1.406       .  A
C3525      C3530   1.406       .  A
C3525     Br3532   1.922       .  S
C3526      C3527   1.412       .  A
C3527      C4896   1.409       .  A
C3527     Br3534   1.928       .  S
C3528      C4895   1.409       .  A
C3528      C4897   1.410       .  A
C3528     Br3533   1.929       .  S
C3529      C4896   1.410       .  A
C3529      C3530   1.410       .  A
C3529      C4357   1.483   1_545  S
C3530     Br3531   1.926       .  S
C3535      C3536   1.415       .  A
C3535      C3540   1.413       .  A
C3535     Br3542   1.932       .  S
C3536      C3537   1.411       .  A
C3537      C3538   1.403       .  A
C3537     Br4912   1.932       .  S
C3538      C3539   1.410       .  A
C3538     Br4911   1.927       .  S
C3539      C3540   1.413       .  A
C3540     Br3541   1.931       .  S
Br3543     C4906   1.927   1_545  S
Br3544     C4905   1.932   1_545  S
C3545      C3546   1.414       .  A
C3545      C3550   1.408       .  A
C3545     Br3552   1.933       .  S
C3546      C3547   1.408       .  A
C3547      C3548   1.405       .  A
C3547     Br3554   1.934       .  S
C3548      C3549   1.413       .  A
C3548     Br3553   1.924       .  S
C3549      C3550   1.412       .  A
C3550     Br3551   1.933       .  S
C3555      C3556   1.417       .  A
C3555      C3560   1.412       .  A
C3555     Br3562   1.934       .  S
C3556      C3557   1.410   1_545  A
C3557      C4926   1.404       .  A
C3557     Br4932   1.937       .  S
C3558      C4925   1.404       .  A
C3558      C4927   1.420       .  A
C3558     Br3563   1.934       .  S
C3559      C4926   1.420       .  A
C3559      C3560   1.416   1_565  A
C3560     Br3561   1.934       .  S
Br3564     C4925   1.937       .  S
C3565      C3566   1.409       .  A
C3565      C3570   1.407       .  A
C3565     Br3572   1.930       .  S
C3566      C3567   1.407       .  A
C3567      C3568   1.402       .  A
C3567     Br3574   1.933       .  S
C3568      C3569   1.407       .  A
C3568     Br3573   1.918       .  S
C3569      C3570   1.412       .  A
C3570     Br3571   1.933       .  S
C3575      C3576   1.422       .  A
C3575      C3580   1.420       .  A
C3575     Br3582   1.940       .  S
C3576      C3577   1.413       .  A
C3577      C3578   1.394       .  A
C3577     Br3584   1.937       .  S
C3578      C3579   1.419       .  A
C3578     Br3583   1.936       .  S
C3579      C3580   1.433       .  A
C3580     Br3581   1.943       .  S
C3585      C3586   1.409       .  A
C3585      C3590   1.404       .  A
C3585     Br3592   1.933       .  S
C3586      C3587   1.410       .  A
C3587      C4956   1.410       .  A
C3587     Br3594   1.929       .  S
C3588      C4955   1.410   1_545  A
C3588      C3589   1.410       .  A
C3588     Br3593   1.924       .  S
C3589      C4958   1.405   1_545  A
C3590      C4957   1.405       .  A
C3590     Br3591   1.916       .  S
C3595      C3596   1.411       .  A
C3595      C3600   1.410       .  A
C3595     Br3602   1.932       .  S
C3596      C3597   1.411       .  A
C3597      C3598   1.406       .  A
C3597     Br3604   1.934       .  S
C3598      C3599   1.411       .  A
C3598     Br3603   1.926       .  S
C3599      C3600   1.413       .  A
C3600     Br3601   1.929       .  S
C3605      C3606   1.404       .  A
C3605      C3610   1.400       .  A
C3605     Br3612   1.926       .  S
C3606      C3607   1.411       .  A
C3607      C3608   1.415       .  A
C3607     Br3614   1.927       .  S
C3608      C3609   1.411       .  A
C3608     Br3613   1.924       .  S
C3609      C3610   1.408       .  A
C3610     Br3611   1.917       .  S
C3615      C3616   1.413       .  A
C3615      C3620   1.413       .  A
C3615     Br3622   1.931       .  S
C3616      C3617   1.412       .  A
C3617      C3618   1.405       .  A
C3617     Br3624   1.924       .  S
C3618      C3619   1.410       .  A
C3618     Br3623   1.927       .  S
C3619      C3620   1.415       .  A
C3620     Br3621   1.925       .  S
C3625      C4994   1.416       .  A
C3625      C3630   1.409       .  A
C3625     Br3632   1.934       .  S
C3626      C4993   1.416       .  A
C3626      C3627   1.413       .  A
C3626      C4312   1.495       .  S
C3627      C3628   1.408       .  A
C3627     Br3634   1.932       .  S
C3628      C3629   1.416       .  A
C3628     Br3633   1.931       .  S
C3629      C4998   1.418       .  A
C3630      C4997   1.418   1_545  A
C3630     Br3631   1.934       .  S
C3635      C3636   1.410       .  A
C3635      C3640   1.407       .  A
C3635     Br3642   1.932       .  S
C3636      C3637   1.410       .  A
C3637      C3638   1.410       .  A
C3637     Br3644   1.923       .  S
C3638      C3639   1.407       .  A
C3638     Br3643   1.927       .  S
C3639      C3640   1.411       .  A
C3640     Br3641   1.931       .  S
C3645      C3646   1.407       .  A
C3645      C3650   1.406       .  A
C3645     Br3652   1.932       .  S
C3646      C3647   1.411       .  A
C3647      C3648   1.409       .  A
C3647     Br3654   1.932       .  S
C3648      C3649   1.413       .  A
C3648     Br3653   1.929       .  S
C3649      C3650   1.413       .  A
C3650     Br3651   1.923       .  S
C3655      C3656   1.408       .  A
C3655      C3660   1.406       .  A
C3655     Br3662   1.936       .  S
C3656      C3657   1.412       .  A
C3657      C3658   1.412       .  A
C3657     Br3664   1.932       .  S
C3658      C3659   1.413   1_655  A
C3658     Br3663   1.923       .  S
C3659      C3660   1.414   1_455  A
C3665      C3666   1.416       .  A
C3665      C3670   1.401       .  A
C3665     Br3672   1.920       .  S
C3666      C3667   1.412       .  A
C3667      C3668   1.411       .  A
C3667     Br3674   1.934       .  S
C3668      C3669   1.417       .  A
C3668     Br3673   1.933       .  S
C3669      C3670   1.406       .  A
C3670     Br3671   1.938       .  S
C3675      C3676   1.415       .  A
C3675      C3680   1.413       .  A
C3675     Br3682   1.935       .  S
C3676      C3677   1.409       .  A
C3677      C3678   1.399       .  A
C3677     Br3684   1.937       .  S
C3678      C3679   1.421       .  A
C3678     Br3683   1.938       .  S
C3679      C3680   1.421       .  A
C3680     Br3681   1.937       .  S
C3685      C3686   1.410       .  A
C3685      C3690   1.405       .  A
C3685     Br3692   1.927       .  S
C3686      C3687   1.407       .  A
C3687      C3688   1.407       .  A
C3688      C3689   1.416       .  A
C3688     Br3693   1.933       .  S
C3689      C3690   1.409       .  A
C3690     Br3691   1.932       .  S
C3695      C3696   1.409       .  A
C3695      C3700   1.399       .  A
C3695     Br3702   1.938       .  S
C3696      C3697   1.416       .  A
C3697      C3698   1.414       .  A
C3697     Br3704   1.936       .  S
C3698      C3699   1.422       .  A
C3698     Br3703   1.936       .  S
C3699      C3700   1.423       .  A
C3700     Br3701   1.940       .  S
C3705      C3706   1.410       .  A
C3705      C3710   1.406       .  A
C3705     Br3712   1.934       .  S
C3706      C3707   1.414       .  A
C3707      C3708   1.409       .  A
C3707     Br5082   1.934       .  S
C3708      C3709   1.413       .  A
C3708     Br5081   1.931       .  S
C3709      C3710   1.412       .  A
C3710     Br3711   1.922       .  S
Br3713     C5076   1.931   1_545  S
Br3714     C5075   1.934   1_545  S
C3715      C3716   1.409       .  A
C3715      C3720   1.402       .  A
C3715     Br3722   1.933       .  S
C3716      C3717   1.415       .  A
C3717      C3718   1.411       .  A
C3717     Br3724   1.934       .  S
C3718      C3719   1.414       .  A
C3718     Br3723   1.929       .  S
C3719      C3720   1.416       .  A
C3720     Br3721   1.931       .  S
C3725      C5094   1.411       .  A
C3725      C5098   1.398       .  A
C3725     Br3732   1.935       .  S
C3726      C5093   1.411       .  A
C3726      C3727   1.414       .  A
C3726      C4267   1.488   1_545  S
C3727      C3728   1.413       .  A
C3727     Br3734   1.932       .  S
C3728      C3729   1.411       .  A
C3728     Br3733   1.919       .  S
C3729      C3730   1.416       .  A
C3730      C5093   1.398       .  A
C3730     Br5099   1.938       .  S
Br3731     C5098   1.938       .  S
C3735      C3736   1.408       .  A
C3735      C3740   1.407       .  A
C3735     Br5110   1.923       .  S
C3736      C3737   1.408       .  A
C3737      C3738   1.404       .  A
C3737     Br3744   1.924   1_554  S
C3738      C3739   1.408       .  A
C3738     Br3743   1.930   1_554  S
C3739      C3740   1.408       .  A
C3740     Br5109   1.929       .  S
Br3741     C5108   1.929   1_545  S
Br3742     C5103   1.923   1_545  S
C3745      C3746   1.419       .  A
C3745      C3750   1.401       .  A
C3745     Br3752   1.935       .  S
C3746      C3747   1.421       .  A
C3747      C3748   1.412       .  A
C3747     Br3754   1.938       .  S
C3748      C3749   1.416       .  A
C3748     Br3753   1.935       .  S
C3749      C3750   1.410       .  A
C3750     Br3751   1.936       .  S
C3755      C3756   1.408       .  A
C3755      C3760   1.402       .  A
C3755     Br3762   1.938       .  S
C3756      C3757   1.417       .  A
C3757      C3758   1.412       .  A
C3757     Br3764   1.933       .  S
C3758      C3759   1.415       .  A
C3758     Br3763   1.934       .  S
C3759      C3760   1.422       .  A
C3760     Br3761   1.935       .  S
C3765      C3766   1.416       .  A
C3765      C3770   1.412       .  A
C3765     Br3772   1.935       .  S
C3766      C3767   1.410       .  A
C3767      C3768   1.403       .  A
C3767     Br3774   1.937       .  S
C3768      C3769   1.419       .  A
C3768     Br3773   1.934       .  S
C3769      C3770   1.417       .  A
C3770     Br3771   1.935       .  S
C3775      C3776   1.414       .  A
C3775      C3780   1.408       .  A
C3775     Br3782   1.933       .  S
C3776      C3777   1.410       .  A
C3777      C3778   1.405       .  A
C3777     Br3784   1.934       .  S
C3778      C3779   1.410       .  A
C3778     Br3783   1.924       .  S
C3779      C3780   1.411       .  A
C3780     Br3781   1.931       .  S
C3785      C3786   1.424       .  A
C3785      C3790   1.412       .  A
C3785     Br3792   1.926       .  S
C3786      C3787   1.416       .  A
C3787      C3788   1.401       .  A
C3787     Br3794   1.920       .  S
C3788      C3789   1.403       .  A
C3788     Br3793   1.931       .  S
C3789      C3790   1.406       .  A
C3790     Br3791   1.929       .  S
C3795      C3796   1.421       .  A
C3795      C3800   1.414       .  A
C3795     Br3802   1.935       .  S
C3796      C3797   1.421       .  A
C3797      C3798   1.403       .  A
C3797     Br3804   1.928       .  S
C3798      C3799   1.422   1_655  A
C3798     Br3803   1.944       .  S
C3799      C3800   1.425   1_455  A
C3805      C3806   1.410       .  A
C3805      C3810   1.413       .  A
C3805     Br3812   1.924       .  S
C3806      C3807   1.412       .  A
C3807      C3808   1.406       .  A
C3807     Br3814   1.917       .  S
C3808      C3809   1.405       .  A
C3808     Br3813   1.932       .  S
C3809      C3810   1.411       .  A
C3810     Br3811   1.928       .  S
C3815      C3816   1.409       .  A
C3815      C3820   1.408       .  A
C3815     Br3822   1.927       .  S
C3816      C3817   1.408       .  A
C3817      C3818   1.406       .  A
C3817     Br3824   1.927       .  S
C3818      C3819   1.407       .  A
C3818     Br3823   1.927       .  S
C3819      C3820   1.407       .  A
C3820     Br3821   1.926       .  S
C3825      C3826   1.407       .  A
C3825      C3830   1.409       .  A
C3825     Br3832   1.927       .  S
C3826      C3827   1.410       .  A
C3827      C5196   1.406       .  A
C3827     Br3834   1.931       .  S
C3828      C5195   1.406   1_545  A
C3828      C3829   1.406       .  A
C3828     Br3833   1.924       .  S
C3829      C5198   1.413   1_545  A
C3830      C5197   1.413       .  A
C3830     Br3831   1.932       .  S
C3835      C3836   1.413       .  A
C3835      C3840   1.409       .  A
C3835     Br3842   1.933       .  S
C3836      C3837   1.410       .  A
C3837      C3838   1.405       .  A
C3837     Br3844   1.933       .  S
C3838      C3839   1.414       .  A
C3839      C3840   1.415       .  A
C3840     Br3841   1.935       .  S
C3845      C3846   1.422       .  A
C3845      C3850   1.401       .  A
C3845     Br3852   1.942       .  S
C3846      C3847   1.420       .  A
C3847      C3848   1.415       .  A
C3847     Br3854   1.933       .  S
C3848      C3849   1.417       .  A
C3848     Br3853   1.935       .  S
C3849      C3850   1.412       .  A
C3850     Br3851   1.935       .  S
C3855      C3856   1.411       .  A
C3855      C3860   1.406       .  A
C3855     Br3862   1.918       .  S
C3856      C3857   1.407       .  A
C3857      C3858   1.406       .  A
C3857     Br3864   1.927       .  S
C3858      C3859   1.411       .  A
C3858     Br3863   1.929       .  S
C3859      C3860   1.403       .  A
C3860     Br3861   1.929       .  S
C3865      C3866   1.411       .  A
C3865      C3870   1.413       .  A
C3865     Br3872   1.928       .  S
C3866      C3867   1.408       .  A
C3867      C3868   1.402       .  A
C3867     Br3874   1.926       .  S
C3868      C3869   1.408       .  A
C3868     Br3873   1.927       .  S
C3869      C3870   1.414       .  A
C3870     Br3871   1.927       .  S
C3875      C3876   1.417       .  A
C3875      C3880   1.400       .  A
C3875     Br3882   1.935       .  S
C3876      C3877   1.418       .  A
C3877      C3878   1.414       .  A
C3877     Br3884   1.933       .  S
C3878      C3879   1.417       .  A
C3878     Br3883   1.934       .  S
C3879      C3880   1.409       .  A
C3880     Br3881   1.925       .  S
C3885      C3886   1.410       .  A
C3885      C3890   1.408       .  A
C3885     Br3892   1.926       .  S
C3886      C3887   1.412       .  A
C3887      C3888   1.409       .  A
C3887     Br3894   1.932       .  S
C3888      C3889   1.410   1_545  A
C3888     Br3893   1.921   1_545  S
C3889      C3890   1.410   1_565  A
C3889      C4525   1.489       .  S
C3895      C3896   1.412       .  A
C3895      C3900   1.409       .  A
C3895     Br3902   1.929       .  S
C3896      C3897   1.407       .  A
C3897      C3898   1.405       .  A
C3897     Br3904   1.927       .  S
C3898      C3899   1.411       .  A
C3898     Br3903   1.928       .  S
C3899      C3900   1.411       .  A
C3900     Br3901   1.931       .  S
C3905      C5274   1.419       .  A
C3905      C3910   1.406       .  A
C3905     Br5280   1.930       .  S
C3906      C5273   1.419   1_545  A
C3906      C5275   1.410       .  A
C3907      C5274   1.410       .  A
C3907      C3908   1.408       .  A
C3907     Br5282   1.918       .  S
C3908      C3909   1.412       .  A
C3908     Br3913   1.935       .  S
C3909      C3910   1.410       .  A
C3910     Br3911   1.937       .  S
Br3912     C5273   1.930       .  S
Br3914     C5275   1.918       .  S
C3915      C3916   1.410       .  A
C3915      C3920   1.408       .  A
C3915     Br3922   1.924       .  S
C3916      C3917   1.409       .  A
C3917      C3918   1.407       .  A
C3917     Br3924   1.926       .  S
C3918      C3919   1.411       .  A
C3918     Br3923   1.932       .  S
C3919      C3920   1.409       .  A
C3920     Br3921   1.931       .  S
C3925      C3930   1.411   1_455  A
C3925     Br3932   1.931       .  S
C3926      C3927   1.411       .  A
C3927      C3928   1.405       .  A
C3927     Br3934   1.932       .  S
C3928     Br3933   1.931       .  S
C3929      C3930   1.412       .  A
C3930     Br3931   1.930   1_655  S
C3935      C3936   1.410       .  A
C3935      C3940   1.406       .  A
C3935     Br3942   1.926       .  S
C3936      C3937   1.412       .  A
C3937      C3938   1.408       .  A
C3937     Br3944   1.932       .  S
C3938      C3939   1.412       .  A
C3938     Br3943   1.932       .  S
C3939      C3940   1.412       .  A
C3940     Br3941   1.933       .  S
C3945      C3946   1.410       .  A
C3945      C3950   1.405       .  A
C3945     Br3952   1.937       .  S
C3946      C3947   1.417       .  A
C3947      C3948   1.409       .  A
C3947     Br3954   1.936       .  S
C3948      C3949   1.417       .  A
C3948     Br3953   1.933       .  S
C3949      C3950   1.418       .  A
C3950     Br3951   1.928       .  S
C3955      C3956   1.414       .  A
C3955      C3960   1.404       .  A
C3955     Br3962   1.923       .  S
C3956      C3957   1.412       .  A
C3957      C3958   1.412       .  A
C3957     Br3964   1.932       .  S
C3958      C3959   1.416       .  A
C3958     Br3963   1.933       .  S
C3959      C3960   1.409       .  A
C3960     Br3961   1.935       .  S
C3965      C3966   1.410       .  A
C3965      C3970   1.406       .  A
C3965     Br3972   1.932       .  S
C3966      C3967   1.408       .  A
C3967      C3968   1.408       .  A
C3967     Br3974   1.928   1_556  S
C3968      C3969   1.410       .  A
C3968     Br3973   1.927       .  S
C3969      C3970   1.409       .  A
C3970     Br3971   1.927       .  S
C3975      C3976   1.406   1_556  A
C3975      C3980   1.403   1_556  A
C3975     Br3982   1.940       .  S
C3976      C3977   1.412       .  A
C3977      C3978   1.409       .  A
C3977     Br3984   1.934       .  S
C3978      C3979   1.420       .  A
C3978     Br3983   1.931       .  S
C3979      C3980   1.423       .  A
C3980     Br3981   1.927   1_554  S
C3985      C3986   1.415       .  A
C3985      C3990   1.413       .  A
C3985     Br3992   1.929       .  S
C3986      C3987   1.410       .  A
C3987      C3988   1.403       .  A
C3988      C3989   1.407       .  A
C3988     Br3993   1.925       .  S
C3989      C3990   1.414       .  A
C3990     Br3991   1.925       .  S
C3995      C3996   1.418       .  A
C3995      C4000   1.421       .  A
C3995     Br4002   1.928       .  S
C3996      C3997   1.411       .  A
C3997      C3998   1.392       .  A
C3997     Br4004   1.931       .  S
C3998      C3999   1.402       .  A
C3998     Br4003   1.911       .  S
C3999      C4000   1.417       .  A
C4000     Br4001   1.929       .  S
C4005      C4006   1.411       .  A
C4005      C4010   1.408       .  A
C4005     Br4012   1.934       .  S
C4006      C4007   1.415       .  A
C4007      C4008   1.407       .  A
C4008      C4009   1.416       .  A
C4009      C4010   1.417       .  A
C4010     Br4011   1.931       .  S
C4015      C4016   1.417       .  A
C4015      C4020   1.409       .  A
C4015     Br4022   1.927       .  S
C4016      C4017   1.418       .  A
C4017      C4018   1.409       .  A
C4017     Br4024   1.933       .  S
C4018      C4019   1.415       .  A
C4018     Br4023   1.936       .  S
C4019      C4020   1.412       .  A
C4020     Br4021   1.935       .  S
C4025      C4026   1.408       .  A
C4025      C4030   1.413       .  A
C4025     Br4032   1.922       .  S
C4026      C4027   1.409       .  A
C4027      C4028   1.400       .  A
C4027     Br4034   1.924       .  S
C4028      C4029   1.411       .  A
C4028     Br4033   1.935       .  S
C4029      C4030   1.414       .  A
C4030     Br4031   1.930       .  S
C4035      C4036   1.409       .  A
C4035      C4040   1.403       .  A
C4035     Br4042   1.929       .  S
C4036      C4037   1.411       .  A
C4037      C4038   1.409       .  A
C4037     Br4044   1.929       .  S
C4038      C4039   1.410       .  A
C4038     Br4043   1.930       .  S
C4039      C4040   1.410       .  A
C4040     Br4041   1.933       .  S
C4045      C4046   1.411       .  A
C4045      C4050   1.413       .  A
C4045     Br4052   1.934       .  S
C4046      C4047   1.411       .  A
C4047      C4048   1.405       .  A
C4047     Br4054   1.931       .  S
C4048      C4049   1.419       .  A
C4048     Br4053   1.935       .  S
C4049      C4050   1.422       .  A
C4050     Br4051   1.931       .  S
C4055      C4056   1.407       .  A
C4055      C4060   1.398       .  A
C4055     Br4062   1.927       .  S
C4056      C4057   1.408       .  A
C4057      C5426   1.412       .  A
C4057     Br4064   1.926       .  S
C4058      C5425   1.412   1_545  A
C4058      C4059   1.410       .  A
C4058     Br4063   1.918       .  S
C4059      C5428   1.401   1_545  A
C4060      C5427   1.401       .  A
C4060     Br4061   1.912       .  S
C4065      C4066   1.410       .  A
C4065     Br4072   1.936       .  S
C4066      C4067   1.414       .  A
C4067      C4068   1.411       .  A
C4067     Br4074   1.935       .  S
C4068     Br4073   1.927       .  S
C4069      C4070   1.419       .  A
C4070     Br4071   1.933       .  S
C4075      C4076   1.408       .  A
C4075      C5448   1.405       .  A
C4075     Br5450   1.930       .  S
C4076      C4077   1.405       .  A
C4077      C4078   1.408       .  A
C4077     Br4084   1.927       .  S
C4078      C4079   1.409       .  A
C4078     Br4083   1.917       .  S
C4079      C5448   1.405       .  A
C4080      C5443   1.405       .  A
C4080      C5447   1.406       .  A
C4080     Br4081   1.915       .  S
Br4082     C5443   1.931       .  S
C4085      C4086   1.412       .  A
C4085      C4090   1.409       .  A
C4085     Br4092   1.932       .  S
C4086      C4087   1.408       .  A
C4086      C4109   1.482       .  S
C4087      C4088   1.405       .  A
C4087     Br4094   1.935       .  S
C4088      C4089   1.414       .  A
C4088     Br4093   1.929       .  S
C4089      C4090   1.412       .  A
C4090     Br4091   1.929       .  S
C4095      C4096   1.413       .  A
C4095      C4100   1.408       .  A
C4095     Br4102   1.933       .  S
C4096      C4097   1.409       .  A
C4097      C4098   1.406       .  A
C4097     Br4104   1.932       .  S
C4098      C4099   1.414       .  A
C4098     Br4103   1.927       .  S
C4099      C4100   1.414       .  A
C4100     Br4101   1.934       .  S
C4105      C4106   1.402       .  A
C4105      C4110   1.398       .  A
C4105      C5464   1.483       .  S
C4106      C4107   1.413       .  A
C4106      H4111   1.081       .  S
C4107      C4108   1.413       .  A
C4107      C4116   1.501       .  S
C4108      C4109   1.401       .  A
C4108      H4112   1.080       .  S
C4109      C4110   1.398       .  A
C4110      H4113   1.084       .  S
C4114      C4115   1.398       .  A
C4114      C4119   1.394       .  A
C4114      C5444   1.475       .  S
C4115      C4116   1.412       .  A
C4116      C4117   1.415       .  A
C4117      C4118   1.405       .  A
C4117      H4121   1.081       .  S
C4118      C4119   1.401       .  A
C4118      C5434   1.490       .  S
C4119      H4122   1.084       .  S
C4123      C4124   1.398       .  A
C4123      C4128   1.407       .  A
C4123      C5414   1.492       .  S
C4124      C4125   1.394       .  A
C4124      H4129   1.085       .  S
C4125      C4126   1.398       .  A
C4125      C5424   1.477       .  S
C4126      C4127   1.419       .  A
C4126      H4130   1.077       .  S
C4127      C4128   1.419       .  A
C4127      C4136   1.513       .  S
C4128      H4131   1.079       .  S
C4132      C4133   1.391       .  A
C4132      C4137   1.400       .  A
C4132      C5407   1.479       .  S
C4133      C4134   1.395       .  A
C4133      H4138   1.085       .  S
C4134      C4135   1.406       .  A
C4134      C5397   1.486       .  S
C4135      C4136   1.421       .  A
C4135      H4139   1.079       .  S
C4136      C4137   1.418       .  A
C4137      H4140   1.078       .  S
C4141      C4142   1.406       .  A
C4141      C4146   1.401       .  A
C4141      C5387   1.494       .  S
C4142      C4143   1.415       .  A
C4142      H4147   1.080       .  S
C4143      C4144   1.414       .  A
C4143      C4152   1.507       .  S
C4144      C4145   1.401       .  A
C4144      H4148   1.079       .  S
C4145      C4146   1.398       .  A
C4145      C5374   1.489       .  S
C4146      H4149   1.083       .  S
C4150      C4151   1.401       .  A
C4150      C4155   1.404       .  A
C4151      C4152   1.415       .  A
C4151      H4156   1.078       .  S
C4152      C4153   1.416       .  A
C4153      C4154   1.404       .  A
C4153      H4157   1.080       .  S
C4154      C4155   1.409       .  A
C4154      C5367   1.498       .  S
C4155      H4158   1.084   1_655  S
C4159      C4160   1.401   1_556  A
C4159      C4164   1.395       .  A
C4159      C5334   1.478       .  S
C4160      C4161   1.413       .  A
C4160      H4165   1.081       .  S
C4161      C4162   1.409       .  A
C4161      C4170   1.495       .  S
C4162      C4163   1.401       .  A
C4162      H4166   1.082       .  S
C4163      C4164   1.401   1_554  A
C4163      C5344   1.485       .  S
C4164      H4167   1.084       .  S
C4168      C4169   1.401       .  A
C4168      C4173   1.399       .  A
C4168      C5327   1.489       .  S
C4169      C4170   1.413       .  A
C4169      H4174   1.081       .  S
C4170      C4171   1.410       .  A
C4171      C4172   1.402       .  A
C4171      H4175   1.081       .  S
C4172      C4173   1.401       .  A
C4172      C5314   1.492       .  S
C4173      H4176   1.083       .  S
C4177      C4178   1.405       .  A
C4177      C5294   1.488       .  S
C4178      C4179   1.420       .  A
C4178      H4183   1.077       .  S
C4179      C4180   1.417       .  A
C4179      C4190   1.516       .  S
C4180      H4184   1.076       .  S
C4181      C4182   1.395       .  A
C4181      C5307   1.484       .  S
C4182      H4185   1.085       .  S
C4186      C4187   1.392       .  A
C4186      C4191   1.402       .  A
C4186      C5287   1.481       .  S
C4187      C4188   1.397       .  A
C4187      H4192   1.084       .  S
C4188      C4189   1.403       .  A
C4188      C5277   1.485       .  S
C4189      C4190   1.418       .  A
C4189      H4193   1.077       .  S
C4190      C4191   1.420       .  A
C4191      H4194   1.077       .  S
C4195      C4196   1.400       .  A
C4195      C4200   1.403       .  A
C4195      C5254   1.487       .  S
C4196      C4197   1.401       .  A
C4196      H4201   1.084       .  S
C4197      C4198   1.403       .  A
C4197      C5267   1.483       .  S
C4198      C4199   1.414       .  A
C4198      H4202   1.079       .  S
C4199      C4200   1.416       .  A
C4199      C4208   1.509       .  S
C4204      C4205   1.401       .  A
C4204      C4209   1.402       .  A
C4204      C5234   1.487       .  S
C4205      H4210   1.084       .  S
C4206      C5247   1.495       .  S
C4207      C4208   1.415       .  A
C4207      H4211   1.080       .  S
C4208      C4209   1.417       .  A
C4209      H4212   1.078       .  S
C4213      C4214   1.395       .  A
C4213      C4218   1.393       .  A
C4213      C5227   1.475       .  S
C4214      C4215   1.413       .  A
C4214      H4219   1.078       .  S
C4215      C4216   1.418       .  A
C4215      C4224   1.505       .  S
C4217      C5217   1.497       .  S
C4222      C4223   1.403       .  A
C4222      C4227   1.401       .  A
C4222      C5204   1.485       .  S
C4223      C4224   1.413       .  A
C4224      C4225   1.415       .  A
C4225      C4226   1.399       .  A
C4225      H4229   1.078       .  S
C4226      C4227   1.396       .  A
C4226      C5194   1.479       .  S
C4227      H4230   1.084       .  S
C4231      C4232   1.402       .  A
C4231      C4236   1.396       .  A
C4231      C5184   1.477       .  S
C4232      C4233   1.417       .  A
C4232      H4237   1.078       .  S
C4233      C4234   1.421       .  A
C4233      C4242   1.517       .  S
C4234      C4235   1.402       .  A
C4234      H4238   1.076       .  S
C4235      C4236   1.396       .  A
C4235      C5177   1.483       .  S
C4236      H4239   1.084       .  S
C4240      C4241   1.395       .  A
C4240      C4245   1.400       .  A
C4240      C5157   1.483       .  S
C4241      C4242   1.412       .  A
C4241      H4246   1.076       .  S
C4242      C4243   1.421       .  A
C4243      C4244   1.415       .  A
C4243      H4247   1.076       .  S
C4244      C4245   1.406       .  A
C4244      C5164   1.518       .  S
C4245      H4248   1.081       .  S
C4249      C4250   1.399       .  A
C4249      C4254   1.397       .  A
C4249      C5144   1.483       .  S
C4250      C4251   1.411       .  A
C4250      H4255   1.081       .  S
C4251      C4252   1.412       .  A
C4251      C4260   1.494       .  S
C4252      C4253   1.404       .  A
C4252      H4256   1.082       .  S
C4253      C4254   1.401       .  A
C4253      C5134   1.491       .  S
C4254      H4257   1.084       .  S
C4258      C4259   1.402       .  A
C4258      C4263   1.399       .  A
C4258      C5117   1.492       .  S
C4259      C4260   1.413       .  A
C4259      H4264   1.081       .  S
C4260      C4261   1.412       .  A
C4261      C4262   1.400       .  A
C4261      H4265   1.081       .  S
C4262      C4263   1.399       .  A
C4262      C5124   1.489       .  S
C4263      H4266   1.083       .  S
C4267      C4268   1.404   1_556  A
C4267      C4272   1.397   1_556  A
C4268      C4269   1.419       .  A
C4268      H4273   1.076   1_554  S
C4269      C4270   1.417       .  A
C4269      C4278   1.510       .  S
C4270      C4271   1.398       .  A
C4270      H4274   1.079       .  S
C4271      C4272   1.391       .  A
C4271      C5107   1.475       .  S
C4272      H4275   1.085   1_564  S
C4276      C4277   1.402       .  A
C4276      C4281   1.398       .  A
C4276      C5084   1.489       .  S
C4277      C4278   1.417       .  A
C4277      H4282   1.079       .  S
C4278      C4279   1.417       .  A
C4279      C4280   1.402       .  A
C4279      H4283   1.077       .  S
C4280      C4281   1.395       .  A
C4280      C5074   1.486       .  S
C4281      H4284   1.084       .  S
C4285      C4286   1.396       .  A
C4285      C4290   1.396       .  A
C4285      C5057   1.481       .  S
C4286      C4287   1.403       .  A
C4286      H4291   1.083       .  S
C4287      C4288   1.405       .  A
C4287      C5064   1.492       .  S
C4288      C4289   1.411       .  A
C4288      H4292   1.082       .  S
C4289      C4290   1.410       .  A
C4289      C4296   1.492       .  S
C4294      C4295   1.403       .  A
C4294      C4299   1.400       .  A
C4294      C5044   1.491       .  S
C4295      C4296   1.412       .  A
C4295      H4300   1.082       .  S
C4296      C4297   1.411       .  A
C4298      C5037   1.485       .  S
C4303      C4304   1.403       .  A
C4303      C4308   1.397       .  A
C4303      C5014   1.482       .  S
C4304      C4305   1.415       .  A
C4304      H4309   1.079       .  S
C4305      C4306   1.416       .  A
C4305      C4314   1.506       .  S
C4306      C4307   1.403       .  A
C4306      H4310   1.081       .  S
C4307      C4308   1.398       .  A
C4307      C5024   1.486       .  S
C4308      H4311   1.084       .  S
C4312      C4313   1.406       .  A
C4313      C4314   1.414       .  A
C4313      H4318   1.080       .  S
C4314      C4315   1.414       .  A
C4315      H4319   1.079       .  S
C4316      C4317   1.397       .  A
C4316      C5007   1.481       .  S
C4317      H4320   1.084       .  S
C4321      C4322   1.407       .  A
C4321      C4326   1.400       .  A
C4321      C4984   1.495       .  S
C4322      C4323   1.422       .  A
C4322      H4327   1.076       .  S
C4323      C4324   1.419       .  A
C4323      C4332   1.520       .  S
C4324      C4325   1.401       .  A
C4324      H4328   1.077       .  S
C4325      C4326   1.398       .  A
C4325      C4974   1.484       .  S
C4326      H4329   1.084       .  S
C4330      C4331   1.405       .  A
C4330      C4335   1.394       .  A
C4330      C4964   1.486       .  S
C4331      C4332   1.422       .  A
C4331      H4336   1.077       .  S
C4332      C4333   1.420       .  A
C4333      C4334   1.403       .  A
C4333      H4337   1.076       .  S
C4334      C4335   1.393       .  A
C4334      C4954   1.479       .  S
C4335      H4338   1.085       .  S
C4339      C4340   1.414       .  A
C4339      C4344   1.405       .  A
C4339      C4944   1.526       .  S
C4340      C4341   1.419       .  A
C4340      H4345   1.073       .  S
C4341      C4342   1.409       .  A
C4341      C4350   1.503       .  S
C4342      C4343   1.392       .  A
C4342      H4346   1.080       .  S
C4343      C4344   1.392       .  A
C4343      C4934   1.474       .  S
C4344      H4347   1.075       .  S
C4348      C4349   1.404       .  A
C4348      C4924   1.492       .  S
C4349      C4350   1.416       .  A
C4349      H4354   1.080       .  S
C4350      C4351   1.411       .  A
C4351      H4355   1.080       .  S
C4352      C4353   1.398       .  A
C4352      C4914   1.483       .  S
C4353      H4356   1.084       .  S
C4357      C4358   1.399       .  A
C4357      C4362   1.395       .  A
C4358      C4359   1.419       .  A
C4358      H4363   1.075       .  S
C4359      C4360   1.421       .  A
C4359      C4368   1.520       .  S
C4360      C4361   1.407       .  A
C4360      H4364   1.076       .  S
C4361      C4362   1.401       .  A
C4361      C4907   1.490       .  S
C4362      H4365   1.084   1_565  S
C4366      C4367   1.405       .  A
C4366      C4371   1.394       .  A
C4366      C4874   1.478       .  S
C4367      C4368   1.420       .  A
C4367      H4372   1.077       .  S
C4368      C4369   1.419       .  A
C4369      C4370   1.399       .  A
C4369      H4373   1.075       .  S
C4370      C4371   1.391       .  A
C4370      C4884   1.475       .  S
C4371      H4374   1.085       .  S
C4375      C4376   1.396       .  A
C4375      C4380   1.395       .  A
C4375      C4857   1.480       .  S
C4376      C4377   1.415       .  A
C4376      H4381   1.077       .  S
C4377      C4378   1.418       .  A
C4377      C4386   1.510       .  S
C4378      C4379   1.409       .  A
C4378      H4382   1.079       .  S
C4379      C4380   1.402       .  A
C4379      C4867   1.499       .  S
C4380      H4383   1.084       .  S
C4384      C4385   1.405       .  A
C4384      C4389   1.395       .  A
C4384      C4844   1.480       .  S
C4385      C4386   1.419       .  A
C4385      H4390   1.080       .  S
C4386      C4387   1.417       .  A
C4387      C4388   1.399       .  A
C4387      H4391   1.078       .  S
C4388      C4389   1.390       .  A
C4388      C4834   1.475       .  S
C4389      H4392   1.085       .  S
C4393      C4394   1.408   1_556  A
C4393      C4398   1.400       .  A
C4393      C4827   1.501       .  S
C4394      C4395   1.421       .  A
C4394      H4399   1.075   1_554  S
C4395      C4396   1.413       .  A
C4395      C4404   1.513       .  S
C4396      C4397   1.398       .  A
C4396      H4400   1.079       .  S
C4397      C4398   1.396   1_554  A
C4397      C4814   1.481       .  S
C4398      H4401   1.084       .  S
C4402      C4403   1.412       .  A
C4402      C4407   1.406       .  A
C4403      C4404   1.421       .  A
C4403      H4408   1.077       .  S
C4404      C4405   1.411       .  A
C4405      C4406   1.394       .  A
C4405      H4409   1.077       .  S
C4406      C4407   1.400       .  A
C4406      C4804   1.479       .  S
C4407      H4410   1.081       .  S
C4411      C4412   1.411       .  A
C4411      C4416   1.406       .  A
C4411      C4777   1.507       .  S
C4412      C4413   1.420       .  A
C4412      H4417   1.079       .  S
C4413      C4414   1.411       .  A
C4413      C4422   1.511       .  S
C4414      C4415   1.397       .  A
C4414      H4418   1.077       .  S
C4415      C4416   1.402       .  A
C4415      C4787   1.486       .  S
C4416      H4419   1.084       .  S
C4420      C4421   1.407       .  A
C4421      C4422   1.421       .  A
C4421      H4426   1.079       .  S
C4422      C4423   1.414       .  A
C4423      H4427   1.079       .  S
C4424      C4425   1.402       .  A
C4424      C4767   1.481       .  S
C4425      H4428   1.084       .  S
O4429     Zr4465   2.451       .  S
O4429      C4440   1.294       .  A
O4430     Zr4464   2.469       .  S
O4430      C4441   1.296       .  A
O4431     Zr4437   2.469       .  S
O4431      C4442   1.298       .  A
O4432     Zr4437   2.485       .  S
O4432      C4443   1.302       .  A
O4433     Zr4467   2.409       .  S
O4433      C4443   1.287       .  A
O4434     Zr4466   2.429       .  S
O4434      C4442   1.289       .  A
O4435     Zr4437   2.410       .  S
O4435      C4441   1.284       .  A
O4436     Zr4437   2.426       .  S
O4436      C4440   1.289       .  A
Zr4437     O4438   2.331       .  S
Zr4437     O4439   2.330       .  S
Zr4437     O4447   2.345       .  S
Zr4437     O4445   2.339       .  S
O4438     Zr4464   2.321       .  S
O4438     Zr4467   2.351       .  S
O4439     Zr4465   2.332       .  S
O4439     Zr4466   2.345       .  S
C4440      C5467   1.485       .  S
C4441      C5214   1.497       .  S
C4442      C5154   1.498       .  S
C4443      C4764   1.483       .  S
H4444      O4445   0.965       .  S
O4445     Zr4464   2.344       .  S
O4445     Zr4466   2.349       .  S
H4446      O4447   0.965       .  S
O4447     Zr4465   2.337       .  S
O4447     Zr4467   2.353       .  S
O4448     Zr4464   2.441       .  S
O4448      C4471   1.293       .  A
O4449     Zr4465   2.451       .  S
O4449      C4472   1.294       .  A
O4450     Zr4466   2.483       .  S
O4450      C4473   1.302       .  A
O4451     Zr4467   2.426       .  S
O4451      C4474   1.287       .  A
O4452     Zr4467   2.481       .  S
O4452      C4475   1.300       .  A
O4453     Zr4466   2.452       .  S
O4453      C4476   1.293       .  A
O4454     Zr4468   2.438       .  S
O4454      C4477   1.290       .  A
O4455     Zr4468   2.396       .  S
O4455      C4478   1.282       .  A
O4456     Zr4466   2.467       .  S
O4456      C4477   1.298       .  A
O4457     Zr4467   2.490       .  S
O4457      C4478   1.303       .  A
O4458     Zr4464   2.418       .  S
O4458      C4473   1.288       .  A
O4459     Zr4465   2.422       .  S
O4459      C4476   1.285       .  A
O4460     Zr4465   2.427       .  S
O4460      C4475   1.288       .  A
O4461     Zr4464   2.460       .  S
O4461      C4474   1.295       .  A
O4462     Zr4468   2.443       .  S
O4462      C4471   1.292       .  A
O4463     Zr4468   2.438       .  S
O4463      C4472   1.291       .  A
Zr4464     O4470   2.362       .  S
Zr4464     O4482   2.345       .  S
Zr4465     O4469   2.345       .  S
Zr4465     O4480   2.354       .  S
Zr4466     O4470   2.338       .  S
Zr4466     O4480   2.344       .  S
Zr4467     O4469   2.322       .  S
Zr4467     O4482   2.341       .  S
Zr4468     O4469   2.349       .  S
Zr4468     O4470   2.336       .  S
Zr4468     O4482   2.347       .  S
Zr4468     O4480   2.339       .  S
C4471      C5337   1.475       .  S
C4472      C5197   1.475       .  S
C4473      C5394   1.486       .  S
C4474      C4824   1.507       .  S
C4475      C5427   1.483       .  S
C4476      C4947   1.511       .  S
C4477      C4784   1.490       .  S
C4478      C5097   1.488       .  S
H4479      O4480   0.965       .  S
H4481      O4482   0.966       .  S
O4483     Zr4519   2.435   1_556  S
O4483      C4494   1.291       .  A
O4484     Zr4518   2.441       .  S
O4484      C4495   1.291       .  A
O4485     Zr4491   2.436       .  S
O4485      C4496   1.291       .  A
O4486      C4497   1.292       .  A
O4488     Zr4520   2.449       .  S
O4488      C4496   1.294       .  A
O4489      C4495   1.290       .  A
O4490     Zr4491   2.432   1_556  S
O4490      C4494   1.290       .  A
Zr4491     O4493   2.332       .  S
Zr4491     O4501   2.336   1_554  S
Zr4491     O4499   2.340       .  S
O4492     Zr4518   2.340       .  S
O4493     Zr4519   2.335       .  S
O4493     Zr4520   2.341       .  S
C4494      C5404   1.475       .  S
C4495      C4817   1.470       .  S
C4496      C5077   1.485       .  S
C4497      C4754   1.498       .  S
H4498      O4499   0.965       .  S
O4499     Zr4520   2.348       .  S
H4500      O4501   0.965       .  S
O4501     Zr4519   2.338   1_556  S
O4503     Zr4519   2.438       .  S
O4503      C4526   1.291       .  A
O4504     Zr4520   2.461       .  S
O4504      C4527   1.297       .  A
O4505      C4528   1.292       .  A
O4506     Zr4521   2.437   1_556  S
O4507     Zr4520   2.451       .  S
O4507      C4530   1.293       .  A
O4508     Zr4522   2.433       .  S
O4508      C4531   1.291       .  A
O4509      C4532   1.296       .  A
O4510     Zr4520   2.471       .  S
O4510      C4531   1.299       .  A
O4511     Zr4521   2.426       .  S
O4511      C4532   1.289       .  A
O4512     Zr4518   2.438       .  S
O4513     Zr4519   2.431       .  S
O4513      C4530   1.290       .  A
O4514     Zr4519   2.439   1_556  S
O4514      C4529   1.292       .  A
O4515      C4528   1.292       .  A
O4516      C4525   1.292       .  A
O4517     Zr4522   2.450       .  S
O4517      C4526   1.294       .  A
Zr4519     O4523   2.340       .  S
Zr4519     O4534   2.339       .  S
Zr4520     O4524   2.344       .  S
Zr4520     O4534   2.344       .  S
Zr4521     O4536   2.355       .  S
Zr4522     O4523   2.341       .  S
Zr4522     O4524   2.351       .  S
Zr4522     O4534   2.347       .  S
C4526      C4807   1.483       .  S
C4527      C4997   1.498       .  S
C4528      C5317   1.492       .  S
C4530      C5347   1.498       .  S
C4531      C4847   1.486       .  S
C4532      C5104   1.474       .  S
H4533      O4534   0.965       .  S
O4537     Zr4573   2.460       .  S
O4537      C4548   1.296       .  A
O4538     Zr4572   2.474       .  S
O4538      C4549   1.299       .  A
O4539     Zr4545   2.478       .  S
O4539      C4550   1.300       .  A
O4540     Zr4545   2.454       .  S
O4540      C4551   1.295       .  A
O4541     Zr4575   2.426       .  S
O4541      C4551   1.289       .  A
O4542     Zr4574   2.415       .  S
O4542      C4550   1.287       .  A
O4543     Zr4545   2.420       .  S
O4543      C4549   1.288       .  A
O4544     Zr4545   2.436       .  S
O4544      C4548   1.290       .  A
Zr4545     O4546   2.347       .  S
Zr4545     O4547   2.340       .  S
Zr4545     O4555   2.344       .  S
Zr4545     O4553   2.346       .  S
O4546     Zr4572   2.328       .  S
O4546     Zr4575   2.337       .  S
O4547     Zr4573   2.350       .  S
O4547     Zr4574   2.352       .  S
C4548      C5384   1.497       .  S
C4549      C4957   1.479       .  S
C4550      C4894   1.481       .  S
C4551      C5034   1.485       .  S
H4552      O4553   0.966       .  S
O4553     Zr4572   2.346       .  S
O4553     Zr4574   2.343       .  S
H4554      O4555   0.965       .  S
O4555     Zr4573   2.341       .  S
O4555     Zr4575   2.341       .  S
O4556     Zr4572   2.445       .  S
O4556      C4579   1.293       .  A
O4557     Zr4573   2.458       .  S
O4557      C4580   1.295       .  A
O4558     Zr4574   2.489       .  S
O4558      C4581   1.302       .  A
O4559     Zr4575   2.447       .  S
O4559      C4582   1.293       .  A
O4560     Zr4575   2.441       .  S
O4560      C4583   1.292       .  A
O4561     Zr4574   2.456       .  S
O4561      C4584   1.296       .  A
O4562     Zr4576   2.459       .  S
O4562      C4585   1.295       .  A
O4563     Zr4576   2.449       .  S
O4563      C4586   1.295       .  A
O4564     Zr4574   2.418       .  S
O4564      C4585   1.285       .  A
O4565     Zr4575   2.422       .  S
O4565      C4586   1.288       .  A
O4566     Zr4572   2.399       .  S
O4566      C4581   1.283       .  A
O4567     Zr4573   2.430       .  S
O4567      C4584   1.290       .  A
O4568     Zr4573   2.438       .  S
O4568      C4583   1.292       .  A
O4569     Zr4572   2.435       .  S
O4569      C4582   1.291       .  A
O4570     Zr4576   2.442       .  S
O4570      C4579   1.293       .  A
O4571     Zr4576   2.437       .  S
O4571      C4580   1.292       .  A
Zr4572     O4578   2.348       .  S
Zr4572     O4590   2.341       .  S
Zr4573     O4577   2.341       .  S
Zr4573     O4588   2.344       .  S
Zr4574     O4578   2.332       .  S
Zr4574     O4588   2.344       .  S
Zr4575     O4577   2.340       .  S
Zr4575     O4590   2.338       .  S
Zr4576     O4577   2.346       .  S
Zr4576     O4578   2.339       .  S
Zr4576     O4590   2.345       .  S
Zr4576     O4588   2.335       .  S
C4579      C5237   1.481       .  S
C4580      C4977   1.482       .  S
C4581      C5274   1.492       .  S
C4582      C5017   1.484       .  S
C4583      C5304   1.478       .  S
C4584      C5147   1.478       .  S
C4585      C5067   1.500       .  S
C4586      C4854   1.478       .  S
H4587      O4588   0.965       .  S
H4589      O4590   0.966       .  S
O4591     Zr4627   2.447       .  S
O4591      C4602   1.293       .  A
O4592     Zr4626   2.460       .  S
O4592      C4603   1.296       .  A
O4593     Zr4599   2.446       .  S
O4593      C4604   1.293       .  A
O4594     Zr4599   2.440       .  S
O4594      C4605   1.292       .  A
O4595     Zr4629   2.442       .  S
O4595      C4605   1.291       .  A
O4596     Zr4628   2.434       .  S
O4596      C4604   1.291       .  A
O4597     Zr4599   2.427       .  S
O4597      C4603   1.289       .  A
O4598     Zr4599   2.434       .  S
O4598      C4602   1.291       .  A
Zr4599     O4600   2.343       .  S
Zr4599     O4601   2.340       .  S
Zr4599     O4609   2.339       .  S
Zr4599     O4607   2.342       .  S
O4600     Zr4626   2.348       .  S
O4600     Zr4629   2.341       .  S
O4601     Zr4627   2.342       .  S
O4601     Zr4628   2.347       .  S
C4602      C5457   1.482       .  S
C4603      C5224   1.475       .  S
C4604      C4917   1.481       .  S
C4605      C5417   1.498       .  S
H4606      O4607   0.965       .  S
O4607     Zr4626   2.345       .  S
O4607     Zr4628   2.337       .  S
H4608      O4609   0.966       .  S
O4609     Zr4627   2.346       .  S
O4609     Zr4629   2.339       .  S
O4610     Zr4626   2.471       .  S
O4610      C4633   1.299       .  A
O4611     Zr4627   2.434       .  S
O4611      C4634   1.290       .  A
O4612     Zr4628   2.448       .  S
O4612      C4635   1.291       .  A
O4613     Zr4629   2.463       .  S
O4613      C4636   1.296       .  A
O4614     Zr4629   2.484       .  S
O4614      C4637   1.301       .  A
O4615     Zr4628   2.433       .  S
O4615      C4638   1.290       .  A
O4616     Zr4630   2.455       .  S
O4616      C4639   1.296       .  A
O4617     Zr4630   2.463       .  S
O4617      C4640   1.296       .  A
O4618     Zr4628   2.437       .  S
O4618      C4639   1.291       .  A
O4619     Zr4629   2.422       .  S
O4619      C4640   1.289       .  A
O4620     Zr4626   2.436       .  S
O4620      C4635   1.289       .  A
O4621     Zr4627   2.450       .  S
O4621      C4638   1.294       .  A
O4622     Zr4627   2.425       .  S
O4622      C4637   1.289       .  A
O4623     Zr4626   2.443       .  S
O4623      C4636   1.292       .  A
O4624     Zr4630   2.418       .  S
O4624      C4633   1.287       .  A
O4625     Zr4630   2.440       .  S
O4625      C4634   1.292       .  A
Zr4626     O4632   2.340       .  S
Zr4626     O4644   2.333       .  S
Zr4627     O4631   2.345       .  S
Zr4627     O4642   2.340       .  S
Zr4628     O4632   2.341       .  S
Zr4628     O4642   2.345       .  S
Zr4629     O4631   2.348       .  S
Zr4629     O4644   2.348       .  S
Zr4630     O4631   2.341       .  S
Zr4630     O4632   2.342       .  S
Zr4630     O4644   2.342       .  S
Zr4630     O4642   2.337       .  S
C4633      C5437   1.494       .  S
C4634      C5114   1.494       .  S
C4636      C4774   1.506       .  S
C4637      C5174   1.486       .  S
C4638      C4877   1.472       .  S
C4639      C5357   1.487       .  S
C4640      C4937   1.472       .  S
H4641      O4642   0.965       .  S
H4643      O4644   0.965       .  S
O4645     Zr4681   2.433       .  S
O4645      C4656   1.291       .  A
O4646     Zr4680   2.444       .  S
O4646      C4657   1.292       .  A
O4647     Zr4653   2.422       .  S
O4647      C4658   1.288       .  A
O4648     Zr4653   2.440       .  S
O4648      C4659   1.290       .  A
O4649     Zr4683   2.428       .  S
O4649      C4659   1.288       .  A
O4650     Zr4682   2.462       .  S
O4650      C4658   1.297       .  A
O4651     Zr4653   2.454       .  S
O4651      C4657   1.295       .  A
O4652     Zr4653   2.457       .  S
O4652      C4656   1.296       .  A
Zr4653     O4654   2.342       .  S
Zr4653     O4655   2.341       .  S
Zr4653     O4663   2.335       .  S
Zr4653     O4661   2.349       .  S
O4654     Zr4680   2.338       .  S
O4654     Zr4683   2.335       .  S
O4655     Zr4681   2.345       .  S
O4655     Zr4682   2.342       .  S
C4656      C5324   1.486       .  S
C4657      C5004   1.478       .  S
C4658      C5087   1.488       .  S
C4659      C4864   1.498       .  S
H4660      O4661   0.966       .  S
O4661     Zr4680   2.345       .  S
O4661     Zr4682   2.338       .  S
H4662      O4663   0.965       .  S
O4663     Zr4681   2.351       .  S
O4663     Zr4683   2.348       .  S
O4664     Zr4680   2.436       .  S
O4664      C4687   1.291       .  A
O4665     Zr4681   2.453       .  S
O4665      C4688   1.294       .  A
O4666     Zr4682   2.454       .  S
O4666      C4689   1.295       .  A
O4667     Zr4683   2.452       .  S
O4667      C4690   1.295       .  A
O4668     Zr4683   2.451       .  S
O4668      C4691   1.294       .  A
O4669     Zr4682   2.424       .  S
O4669      C4692   1.286       .  A
O4670     Zr4684   2.434       .  S
O4670      C4693   1.291       .  A
O4671     Zr4684   2.424       .  S
O4671      C4694   1.287       .  A
O4672     Zr4682   2.460       .  S
O4672      C4693   1.297       .  A
O4673     Zr4683   2.444       .  S
O4673      C4694   1.293       .  A
O4674     Zr4680   2.421       .  S
O4674      C4689   1.287       .  A
O4675     Zr4681   2.464       .  S
O4675      C4692   1.294       .  A
O4676     Zr4681   2.439       .  S
O4676      C4691   1.292       .  A
O4677     Zr4680   2.442       .  S
O4677      C4690   1.292       .  A
O4678     Zr4684   2.454       .  S
O4678      C4687   1.295       .  A
O4679     Zr4684   2.450       .  S
O4679      C4688   1.294       .  A
Zr4680     O4686   2.341       .  S
Zr4680     O4698   2.339       .  S
Zr4681     O4685   2.344       .  S
Zr4681     O4696   2.331       .  S
Zr4682     O4686   2.341       .  S
Zr4682     O4696   2.350       .  S
Zr4683     O4685   2.344       .  S
Zr4683     O4698   2.339       .  S
Zr4684     O4685   2.338       .  S
Zr4684     O4686   2.341       .  S
Zr4684     O4698   2.344       .  S
Zr4684     O4696   2.339       .  S
C4687      C5284   1.477       .  S
C4689      C5244   1.491       .  S
C4690      C4987   1.488       .  S
C4691      C5264   1.475       .  S
C4692      C4797   1.514       .  S
C4693      C4837   1.476       .  S
C4694      C5047   1.495       .  S
H4695      O4696   0.964       .  S
H4697      O4698   0.966       .  S
O4699     Zr4735   2.479       .  S
O4699      C4710   1.300       .  A
O4700     Zr4734   2.464       .  S
O4700      C4711   1.297       .  A
O4701     Zr4707   2.461       .  S
O4701      C4712   1.296       .  A
O4702     Zr4707   2.480       .  S
O4702      C4713   1.300       .  A
O4703     Zr4737   2.405       .  S
O4703      C4713   1.284       .  A
O4704      C4712   1.290       .  A
O4705     Zr4707   2.407       .  S
O4705      C4711   1.284       .  A
O4706     Zr4707   2.417       .  S
Zr4707     O4708   2.333       .  S
Zr4707     O4709   2.341       .  S
Zr4707     O4717   2.343       .  S
Zr4707     O4715   2.344       .  S
O4708     Zr4734   2.332       .  S
O4708     Zr4737   2.333       .  S
C4710      C5447   1.481       .  S
C4711      C5127   1.491       .  S
C4712      C4904   1.484       .  S
C4713      C5187   1.475       .  S
H4714      O4715   0.966       .  S
O4715     Zr4734   2.340       .  S
H4716      O4717   0.966       .  S
O4717     Zr4737   2.349       .  S
O4718     Zr4734   2.444       .  S
O4718      C4741   1.293       .  A
O4719      C4742   1.296       .  A
O4720      C4743   1.295       .  A
O4721     Zr4737   2.437       .  S
O4721      C4744   1.291       .  A
O4723     Zr4736   2.468       .  S
O4723      C4746   1.298       .  A
O4724      C4747   1.292       .  A
O4725     Zr4738   2.434       .  S
O4725      C4748   1.290       .  A
O4726     Zr4736   2.433       .  S
O4727      C4748   1.291       .  A
O4728     Zr4734   2.439       .  S
O4728      C4743   1.293       .  A
O4729     Zr4735   2.426       .  S
O4729      C4746   1.289       .  A
O4730      C4745   1.296       .  A
O4731     Zr4734   2.439       .  S
O4731      C4744   1.292       .  A
O4732     Zr4738   2.442       .  S
O4733      C4742   1.288       .  A
Zr4734     O4740   2.351       .  S
Zr4734     O4752   2.348       .  S
Zr4735     O4750   2.348       .  S
Zr4736     O4750   2.336       .  S
Zr4737     O4752   2.338       .  S
Zr4738     O4739   2.343       .  S
C4741      C5297   1.481       .  S
C4742      C5137   1.491       .  S
C4743      C4967   1.483       .  S
C4744      C5377   1.488       .  S
C4745      C4927   1.492       .  S
C4746      C5364   1.490       .  S
C4747      C5054   1.472       .  S
C4748      C4887   1.469       .  S
H4751      O4752   0.966       .  S
C4753      C4758   1.416       .  A
C4753     Br4760   1.934       .  S
C4754      C4755   1.417       .  A
C4755      C4756   1.406       .  A
C4755     Br4762   1.932       .  S
C4756      C4757   1.411       .  A
C4756     Br4761   1.928       .  S
C4758     Br4759   1.932       .  S
C4763      C4764   1.409       .  A
C4763      C4768   1.396       .  A
C4763     Br4770   1.922       .  S
C4764      C4765   1.414       .  A
C4765      C4766   1.415       .  A
C4765     Br4772   1.924       .  S
C4766      C4767   1.409       .  A
C4767      C4768   1.403       .  A
C4768     Br4769   1.927       .  S
C4773      C4774   1.425       .  A
C4773      C4778   1.416       .  A
C4773     Br4780   1.932       .  S
C4774      C4775   1.419       .  A
C4775      C4776   1.405       .  A
C4775     Br4782   1.935       .  S
C4776      C4777   1.411       .  A
C4776     Br4781   1.921       .  S
C4777      C4778   1.417       .  A
C4778     Br4779   1.934       .  S
C4783      C4784   1.412       .  A
C4783      C4788   1.411       .  A
C4783     Br4790   1.918       .  S
C4784      C4785   1.409       .  A
C4785      C4786   1.402       .  A
C4785     Br4792   1.913       .  S
C4786      C4787   1.406       .  A
C4786     Br4791   1.927       .  S
C4787      C4788   1.412       .  A
C4788     Br4789   1.928       .  S
C4793      C4794   1.419       .  A
C4793      C4798   1.404       .  A
C4793     Br4800   1.933       .  S
C4794      C4795   1.421       .  A
C4795      C4796   1.416       .  A
C4796      C4797   1.424       .  A
C4796     Br4801   1.934       .  S
C4797      C4798   1.427       .  A
C4798     Br4799   1.948       .  S
C4803      C4804   1.406       .  A
C4803      C4808   1.401       .  A
C4804      C4805   1.405       .  A
C4805      C4806   1.412       .  A
C4805     Br4812   1.928       .  S
C4806      C4807   1.419       .  A
C4806     Br4811   1.927       .  S
C4807      C4808   1.409       .  A
C4813      C4814   1.416       .  A
C4813      C4818   1.408       .  A
C4813     Br4820   1.930       .  S
C4814      C4815   1.407       .  A
C4815      C4816   1.403       .  A
C4816      C4817   1.409       .  A
C4817      C4818   1.405       .  A
C4818     Br4819   1.930       .  S
C4823      C4824   1.422       .  A
C4823      C4828   1.402       .  A
C4823     Br4830   1.939       .  S
C4824      C4825   1.423       .  A
C4825      C4826   1.417       .  A
C4825     Br4832   1.936       .  S
C4826      C4827   1.417       .  A
C4826     Br4831   1.935       .  S
C4827      C4828   1.413       .  A
C4828     Br4829   1.938       .  S
C4833      C4834   1.404       .  A
C4833      C4838   1.404       .  A
C4833     Br4840   1.932       .  S
C4834      C4835   1.411       .  A
C4835     Br4842   1.930       .  S
C4836      C4837   1.408       .  A
C4836     Br4841   1.925       .  S
C4843      C4844   1.409       .  A
C4843      C4848   1.409       .  A
C4843     Br4850   1.931       .  S
C4844      C4845   1.409       .  A
C4845      C4846   1.405       .  A
C4845     Br4852   1.934       .  S
C4846      C4847   1.411       .  A
C4846     Br4851   1.919       .  S
C4847      C4848   1.410       .  A
C4848     Br4849   1.917       .  S
C4853      C4854   1.418       .  A
C4853      C4858   1.410       .  A
C4853     Br4860   1.932       .  S
C4854      C4855   1.410       .  A
C4855      C4856   1.399       .  A
C4855     Br4862   1.931       .  S
C4856      C4857   1.406       .  A
C4856     Br4861   1.927       .  S
C4857      C4858   1.407       .  A
C4858     Br4859   1.928       .  S
C4863      C4864   1.421       .  A
C4863      C4868   1.400       .  A
C4863     Br4870   1.944       .  S
C4864      C4865   1.424       .  A
C4865      C4866   1.414       .  A
C4865     Br4872   1.936       .  S
C4866      C4867   1.416       .  A
C4866     Br4871   1.935       .  S
C4867      C4868   1.412       .  A
C4868     Br4869   1.927       .  S
C4873      C4874   1.409       .  A
C4873      C4878   1.405       .  A
C4873     Br4880   1.930       .  S
C4874      C4875   1.409       .  A
C4875      C4876   1.408       .  A
C4875     Br4882   1.930       .  S
C4876      C4877   1.410       .  A
C4876     Br4881   1.930       .  S
C4877      C4878   1.408       .  A
C4878     Br4879   1.926       .  S
C4883      C4884   1.407       .  A
C4883      C4888   1.405       .  A
C4883     Br4890   1.929       .  S
C4884      C4885   1.409       .  A
C4885      C4886   1.406       .  A
C4886      C4887   1.410       .  A
C4887      C4888   1.407       .  A
C4888     Br4889   1.925       .  S
C4893      C4894   1.406       .  A
C4893      C4898   1.406       .  A
C4893     Br4900   1.922       .  S
C4894      C4895   1.412       .  A
C4895     Br4902   1.928       .  S
C4896     Br4901   1.929   1_545  S
C4897      C4898   1.410       .  A
C4898     Br4899   1.926       .  S
C4903      C4904   1.415       .  A
C4903      C4908   1.413       .  A
C4903     Br4910   1.932       .  S
C4904      C4905   1.411       .  A
C4905      C4906   1.403       .  A
C4906      C4907   1.410       .  A
C4907      C4908   1.413       .  A
C4908     Br4909   1.931       .  S
C4913      C4914   1.414       .  A
C4913      C4918   1.409       .  A
C4913     Br4920   1.933       .  S
C4914      C4915   1.408       .  A
C4915      C4916   1.405       .  A
C4915     Br4922   1.934       .  S
C4916      C4917   1.413       .  A
C4916     Br4921   1.924       .  S
C4917      C4918   1.412       .  A
C4918     Br4919   1.933       .  S
C4923      C4924   1.417       .  A
C4923      C4928   1.412       .  A
C4923     Br4930   1.934       .  S
C4924      C4925   1.410       .  A
C4926     Br4931   1.934       .  S
C4927      C4928   1.416       .  A
C4928     Br4929   1.934       .  S
C4933      C4934   1.409       .  A
C4933      C4938   1.407       .  A
C4933     Br4940   1.930       .  S
C4934      C4935   1.407       .  A
C4935      C4936   1.402       .  A
C4935     Br4942   1.933       .  S
C4936      C4937   1.407       .  A
C4936     Br4941   1.918       .  S
C4937      C4938   1.412       .  A
C4938     Br4939   1.933       .  S
C4943      C4944   1.422       .  A
C4943      C4948   1.420       .  A
C4943     Br4950   1.940       .  S
C4944      C4945   1.413       .  A
C4945      C4946   1.394       .  A
C4945     Br4952   1.937       .  S
C4946      C4947   1.419       .  A
C4946     Br4951   1.936       .  S
C4947      C4948   1.433       .  A
C4948     Br4949   1.943       .  S
C4953      C4954   1.409       .  A
C4953      C4958   1.404       .  A
C4953     Br4960   1.933       .  S
C4954      C4955   1.410       .  A
C4955     Br4962   1.929       .  S
C4956      C4957   1.410       .  A
C4956     Br4961   1.924       .  S
C4958     Br4959   1.916       .  S
C4963      C4964   1.411       .  A
C4963      C4968   1.410       .  A
C4963     Br4970   1.932       .  S
C4964      C4965   1.411       .  A
C4965      C4966   1.406       .  A
C4965     Br4972   1.934       .  S
C4966      C4967   1.411       .  A
C4966     Br4971   1.926       .  S
C4967      C4968   1.413       .  A
C4968     Br4969   1.929       .  S
C4973      C4974   1.404       .  A
C4973      C4978   1.400       .  A
C4973     Br4980   1.926       .  S
C4974      C4975   1.411       .  A
C4975      C4976   1.415       .  A
C4975     Br4982   1.927       .  S
C4976      C4977   1.411       .  A
C4976     Br4981   1.924       .  S
C4977      C4978   1.408       .  A
C4978     Br4979   1.917       .  S
C4983      C4984   1.413       .  A
C4983      C4988   1.413       .  A
C4983     Br4990   1.931       .  S
C4984      C4985   1.412       .  A
C4985      C4986   1.405       .  A
C4985     Br4992   1.924       .  S
C4986      C4987   1.410       .  A
C4986     Br4991   1.927       .  S
C4987      C4988   1.415       .  A
C4988     Br4989   1.925       .  S
C4993      C4998   1.409       .  A
C4993     Br5000   1.934       .  S
C4994      C4995   1.413   1_545  A
C4995      C4996   1.408       .  A
C4995     Br5002   1.932       .  S
C4996      C4997   1.416       .  A
C4996     Br5001   1.931       .  S
C4998     Br4999   1.934       .  S
C5003      C5004   1.410       .  A
C5003      C5008   1.407       .  A
C5003     Br5010   1.932       .  S
C5004      C5005   1.410       .  A
C5005      C5006   1.410       .  A
C5005     Br5012   1.923       .  S
C5006      C5007   1.407       .  A
C5006     Br5011   1.927       .  S
C5007      C5008   1.411       .  A
C5008     Br5009   1.931       .  S
C5013      C5014   1.407       .  A
C5013      C5018   1.406       .  A
C5013     Br5020   1.932       .  S
C5014      C5015   1.411       .  A
C5015      C5016   1.409       .  A
C5015     Br5022   1.932       .  S
C5016      C5017   1.413       .  A
C5016     Br5021   1.929       .  S
C5017      C5018   1.413       .  A
C5018     Br5019   1.923       .  S
C5023      C5024   1.408       .  A
C5023      C5028   1.406       .  A
C5023     Br5030   1.936       .  S
C5024      C5025   1.412       .  A
C5025      C5026   1.412       .  A
C5025     Br5032   1.932       .  S
C5026      C5027   1.413   1_655  A
C5026     Br5031   1.923       .  S
C5027      C5028   1.414   1_455  A
C5033      C5034   1.416       .  A
C5033      C5038   1.401       .  A
C5033     Br5040   1.920       .  S
C5034      C5035   1.412       .  A
C5035      C5036   1.411       .  A
C5035     Br5042   1.934       .  S
C5036      C5037   1.417       .  A
C5036     Br5041   1.933       .  S
C5037      C5038   1.406       .  A
C5038     Br5039   1.938       .  S
C5043      C5044   1.415       .  A
C5043      C5048   1.413       .  A
C5043     Br5050   1.935       .  S
C5044      C5045   1.409       .  A
C5045      C5046   1.399       .  A
C5045     Br5052   1.937       .  S
C5046      C5047   1.421       .  A
C5046     Br5051   1.938       .  S
C5047      C5048   1.421       .  A
C5048     Br5049   1.937       .  S
C5053      C5054   1.410       .  A
C5053      C5058   1.405       .  A
C5053     Br5060   1.927       .  S
C5054      C5055   1.407       .  A
C5055      C5056   1.407       .  A
C5056      C5057   1.416       .  A
C5056     Br5061   1.933       .  S
C5057      C5058   1.409       .  A
C5058     Br5059   1.931       .  S
C5063      C5064   1.409       .  A
C5063      C5068   1.399       .  A
C5063     Br5070   1.938       .  S
C5064      C5065   1.416       .  A
C5065      C5066   1.414       .  A
C5065     Br5072   1.936       .  S
C5066      C5067   1.422       .  A
C5066     Br5071   1.936       .  S
C5067      C5068   1.423       .  A
C5068     Br5069   1.940       .  S
C5073      C5074   1.410       .  A
C5073      C5078   1.406       .  A
C5073     Br5080   1.934       .  S
C5074      C5075   1.414       .  A
C5075      C5076   1.409       .  A
C5076      C5077   1.413       .  A
C5077      C5078   1.412       .  A
C5078     Br5079   1.922       .  S
C5083      C5084   1.409       .  A
C5083      C5088   1.402       .  A
C5083     Br5090   1.933       .  S
C5084      C5085   1.415       .  A
C5085      C5086   1.411       .  A
C5085     Br5092   1.934       .  S
C5086      C5087   1.414       .  A
C5086     Br5091   1.929       .  S
C5087      C5088   1.416       .  A
C5088     Br5089   1.931       .  S
C5093     Br5100   1.935   1_545  S
C5094      C5095   1.414       .  A
C5095      C5096   1.413       .  A
C5095     Br5102   1.932       .  S
C5096      C5097   1.411       .  A
C5096     Br5101   1.919       .  S
C5097      C5098   1.416       .  A
C5103      C5104   1.408       .  A
C5103      C5108   1.407       .  A
C5104      C5105   1.408       .  A
C5105      C5106   1.404       .  A
C5105     Br5112   1.924   1_554  S
C5106      C5107   1.408       .  A
C5106     Br5111   1.930   1_554  S
C5107      C5108   1.408       .  A
C5113      C5114   1.419       .  A
C5113      C5118   1.401       .  A
C5113     Br5120   1.935       .  S
C5114      C5115   1.421       .  A
C5115      C5116   1.412       .  A
C5115     Br5122   1.938       .  S
C5116      C5117   1.416       .  A
C5116     Br5121   1.935       .  S
C5117      C5118   1.410       .  A
C5118     Br5119   1.936       .  S
C5123      C5124   1.408       .  A
C5123      C5128   1.401       .  A
C5123     Br5130   1.938       .  S
C5124      C5125   1.417       .  A
C5125      C5126   1.412       .  A
C5125     Br5132   1.933       .  S
C5126      C5127   1.415       .  A
C5126     Br5131   1.934       .  S
C5127      C5128   1.422       .  A
C5128     Br5129   1.935       .  S
C5133      C5134   1.416       .  A
C5133      C5138   1.412       .  A
C5133     Br5140   1.935       .  S
C5134      C5135   1.410       .  A
C5135      C5136   1.403       .  A
C5135     Br5142   1.937       .  S
C5136      C5137   1.419       .  A
C5136     Br5141   1.934       .  S
C5137      C5138   1.417       .  A
C5138     Br5139   1.935       .  S
C5143      C5144   1.414       .  A
C5143      C5148   1.408       .  A
C5143     Br5150   1.933       .  S
C5144      C5145   1.410       .  A
C5145      C5146   1.405       .  A
C5145     Br5152   1.934       .  S
C5146      C5147   1.410       .  A
C5146     Br5151   1.924       .  S
C5147      C5148   1.411       .  A
C5148     Br5149   1.931       .  S
C5153      C5154   1.424       .  A
C5153      C5158   1.412       .  A
C5153     Br5160   1.926       .  S
C5154      C5155   1.416       .  A
C5155      C5156   1.401       .  A
C5155     Br5162   1.920       .  S
C5156      C5157   1.403       .  A
C5156     Br5161   1.931       .  S
C5157      C5158   1.406       .  A
C5158     Br5159   1.929       .  S
C5163      C5164   1.421       .  A
C5163      C5168   1.414       .  A
C5163     Br5170   1.935       .  S
C5164      C5165   1.421       .  A
C5165      C5166   1.403       .  A
C5165     Br5172   1.928       .  S
C5166      C5167   1.422   1_655  A
C5166     Br5171   1.944       .  S
C5167      C5168   1.425   1_455  A
C5173      C5174   1.410       .  A
C5173      C5178   1.413       .  A
C5173     Br5180   1.924       .  S
C5174      C5175   1.412       .  A
C5175      C5176   1.406       .  A
C5175     Br5182   1.917       .  S
C5176      C5177   1.405       .  A
C5176     Br5181   1.932       .  S
C5177      C5178   1.411       .  A
C5178     Br5179   1.928       .  S
C5183      C5184   1.409       .  A
C5183      C5188   1.408       .  A
C5183     Br5190   1.927       .  S
C5184      C5185   1.408       .  A
C5185      C5186   1.406       .  A
C5185     Br5192   1.927       .  S
C5186      C5187   1.407       .  A
C5186     Br5191   1.927       .  S
C5187      C5188   1.407       .  A
C5188     Br5189   1.926       .  S
C5193      C5194   1.407       .  A
C5193      C5198   1.409       .  A
C5193     Br5200   1.927       .  S
C5194      C5195   1.410       .  A
C5195     Br5202   1.931       .  S
C5196      C5197   1.406       .  A
C5196     Br5201   1.924       .  S
C5198     Br5199   1.932   1_565  S
C5203      C5204   1.413       .  A
C5203      C5208   1.409       .  A
C5203     Br5210   1.933       .  S
C5204      C5205   1.410       .  A
C5205      C5206   1.405       .  A
C5205     Br5212   1.933       .  S
C5206      C5207   1.414       .  A
C5207      C5208   1.415       .  A
C5208     Br5209   1.935       .  S
C5213      C5214   1.422       .  A
C5213      C5218   1.401       .  A
C5213     Br5220   1.942       .  S
C5214      C5215   1.420       .  A
C5215      C5216   1.415       .  A
C5215     Br5222   1.933       .  S
C5216      C5217   1.417       .  A
C5216     Br5221   1.935       .  S
C5217      C5218   1.412       .  A
C5218     Br5219   1.935       .  S
C5223      C5224   1.411       .  A
C5223      C5228   1.406       .  A
C5223     Br5230   1.918       .  S
C5224      C5225   1.407       .  A
C5225      C5226   1.406       .  A
C5225     Br5232   1.927       .  S
C5226      C5227   1.411       .  A
C5226     Br5231   1.929       .  S
C5227      C5228   1.403       .  A
C5228     Br5229   1.929       .  S
C5233      C5234   1.411       .  A
C5233      C5238   1.413       .  A
C5233     Br5240   1.928       .  S
C5234      C5235   1.408       .  A
C5235      C5236   1.402       .  A
C5235     Br5242   1.926       .  S
C5236      C5237   1.408       .  A
C5236     Br5241   1.927       .  S
C5237      C5238   1.414       .  A
C5238     Br5239   1.927       .  S
C5243      C5244   1.417       .  A
C5243      C5248   1.400       .  A
C5243     Br5250   1.935       .  S
C5244      C5245   1.418       .  A
C5245      C5246   1.414       .  A
C5245     Br5252   1.933       .  S
C5246      C5247   1.417       .  A
C5246     Br5251   1.934       .  S
C5247      C5248   1.409       .  A
C5248     Br5249   1.925   1_565  S
C5253      C5254   1.410       .  A
C5253      C5258   1.408       .  A
C5253     Br5260   1.926       .  S
C5254      C5255   1.412       .  A
C5255      C5256   1.409       .  A
C5255     Br5262   1.932       .  S
C5256      C5257   1.410       .  A
C5256     Br5261   1.921       .  S
C5257      C5258   1.410       .  A
C5263      C5264   1.412       .  A
C5263      C5268   1.409       .  A
C5263     Br5270   1.929       .  S
C5264      C5265   1.407       .  A
C5265      C5266   1.405       .  A
C5265     Br5272   1.927       .  S
C5266      C5267   1.411       .  A
C5266     Br5271   1.928       .  S
C5267      C5268   1.411       .  A
C5268     Br5269   1.931       .  S
C5273      C5278   1.406       .  A
C5275      C5276   1.408   1_545  A
C5276      C5277   1.412       .  A
C5276     Br5281   1.935       .  S
C5277      C5278   1.410       .  A
C5278     Br5279   1.937       .  S
C5283      C5284   1.410       .  A
C5283      C5288   1.408       .  A
C5283     Br5290   1.924       .  S
C5284      C5285   1.409       .  A
C5285      C5286   1.407       .  A
C5285     Br5292   1.926       .  S
C5286      C5287   1.411       .  A
C5286     Br5291   1.932       .  S
C5287      C5288   1.409       .  A
C5288     Br5289   1.931       .  S
C5293      C5298   1.411   1_455  A
C5293     Br5300   1.931       .  S
C5294      C5295   1.411       .  A
C5295      C5296   1.405       .  A
C5295     Br5302   1.932       .  S
C5296     Br5301   1.931       .  S
C5297      C5298   1.412       .  A
C5298     Br5299   1.930   1_655  S
C5303      C5304   1.409       .  A
C5303      C5308   1.406       .  A
C5303     Br5310   1.926       .  S
C5304      C5305   1.412       .  A
C5305      C5306   1.408       .  A
C5305     Br5312   1.932       .  S
C5306      C5307   1.412       .  A
C5306     Br5311   1.932       .  S
C5307      C5308   1.412       .  A
C5308     Br5309   1.933       .  S
C5313      C5314   1.410       .  A
C5313      C5318   1.405       .  A
C5313     Br5320   1.937       .  S
C5314      C5315   1.417       .  A
C5315      C5316   1.409       .  A
C5315     Br5322   1.936       .  S
C5316      C5317   1.417       .  A
C5316     Br5321   1.933       .  S
C5317      C5318   1.418       .  A
C5318     Br5319   1.928       .  S
C5323      C5324   1.414       .  A
C5323      C5328   1.404       .  A
C5323     Br5330   1.923       .  S
C5324      C5325   1.412       .  A
C5325      C5326   1.412       .  A
C5325     Br5332   1.932       .  S
C5326      C5327   1.416       .  A
C5326     Br5331   1.933       .  S
C5327      C5328   1.409       .  A
C5328     Br5329   1.935       .  S
C5333      C5334   1.410       .  A
C5333      C5338   1.406       .  A
C5333     Br5340   1.932       .  S
C5334      C5335   1.408       .  A
C5335      C5336   1.408       .  A
C5335     Br5342   1.928   1_556  S
C5336      C5337   1.410       .  A
C5336     Br5341   1.927       .  S
C5337      C5338   1.409       .  A
C5338     Br5339   1.927       .  S
C5343      C5344   1.406   1_556  A
C5343      C5348   1.403   1_556  A
C5343     Br5350   1.940       .  S
C5344      C5345   1.412       .  A
C5345      C5346   1.409       .  A
C5345     Br5352   1.934       .  S
C5346      C5347   1.420       .  A
C5346     Br5351   1.931       .  S
C5347      C5348   1.423       .  A
C5348     Br5349   1.927   1_554  S
C5353      C5354   1.415       .  A
C5353      C5358   1.413       .  A
C5353     Br5360   1.929       .  S
C5354      C5355   1.410       .  A
C5355      C5356   1.403       .  A
C5356      C5357   1.407       .  A
C5356     Br5361   1.925       .  S
C5357      C5358   1.414       .  A
C5358     Br5359   1.925       .  S
C5363      C5364   1.418       .  A
C5363      C5368   1.421       .  A
C5363     Br5370   1.928       .  S
C5364      C5365   1.411       .  A
C5365      C5366   1.392       .  A
C5365     Br5372   1.931       .  S
C5366      C5367   1.402       .  A
C5366     Br5371   1.911       .  S
C5367      C5368   1.417       .  A
C5368     Br5369   1.928       .  S
C5373      C5374   1.411       .  A
C5373      C5378   1.408       .  A
C5373     Br5380   1.934       .  S
C5374      C5375   1.415       .  A
C5375      C5376   1.407       .  A
C5376      C5377   1.416       .  A
C5377      C5378   1.417       .  A
C5378     Br5379   1.931       .  S
C5383      C5384   1.417       .  A
C5383      C5388   1.409       .  A
C5383     Br5390   1.927       .  S
C5384      C5385   1.418       .  A
C5385      C5386   1.409       .  A
C5385     Br5392   1.933       .  S
C5386      C5387   1.415       .  A
C5386     Br5391   1.936       .  S
C5387      C5388   1.412       .  A
C5388     Br5389   1.935       .  S
C5393      C5394   1.408       .  A
C5393      C5398   1.413       .  A
C5393     Br5400   1.922       .  S
C5394      C5395   1.409       .  A
C5395      C5396   1.400       .  A
C5395     Br5402   1.924       .  S
C5396      C5397   1.411       .  A
C5396     Br5401   1.935       .  S
C5397      C5398   1.414       .  A
C5398     Br5399   1.930       .  S
C5403      C5404   1.409       .  A
C5403      C5408   1.403       .  A
C5403     Br5410   1.929       .  S
C5404      C5405   1.411       .  A
C5405      C5406   1.409       .  A
C5405     Br5412   1.929       .  S
C5406      C5407   1.410       .  A
C5406     Br5411   1.930       .  S
C5407      C5408   1.410       .  A
C5408     Br5409   1.933       .  S
C5413      C5414   1.411       .  A
C5413      C5418   1.413       .  A
C5413     Br5420   1.934       .  S
C5414      C5415   1.411       .  A
C5415      C5416   1.405       .  A
C5415     Br5422   1.931       .  S
C5416      C5417   1.419       .  A
C5416     Br5421   1.935       .  S
C5417      C5418   1.422       .  A
C5418     Br5419   1.931       .  S
C5423      C5424   1.407       .  A
C5423      C5428   1.398       .  A
C5423     Br5430   1.927       .  S
C5424      C5425   1.408       .  A
C5425     Br5432   1.926       .  S
C5426      C5427   1.410       .  A
C5426     Br5431   1.918       .  S
C5428     Br5429   1.912       .  S
C5433      C5434   1.410       .  A
C5433     Br5440   1.936       .  S
C5434      C5435   1.414       .  A
C5435      C5436   1.411       .  A
C5435     Br5442   1.935       .  S
C5436     Br5441   1.927       .  S
C5437      C5438   1.419       .  A
C5438     Br5439   1.932       .  S
C5443      C5444   1.408       .  A
C5444      C5445   1.404       .  A
C5445      C5446   1.408       .  A
C5445     Br5452   1.927       .  S
C5446      C5447   1.409       .  A
C5446     Br5451   1.916       .  S
C5448     Br5449   1.914   1_545  S
C5453      C5454   1.412       .  A
C5453      C5458   1.409       .  A
C5453     Br5460   1.932       .  S
C5454      C5455   1.408       .  A
C5455      C5456   1.405       .  A
C5455     Br5462   1.935       .  S
C5456      C5457   1.414       .  A
C5456     Br5461   1.929       .  S
C5457      C5458   1.412       .  A
C5458     Br5459   1.929       .  S
C5463      C5464   1.413       .  A
C5463      C5468   1.408       .  A
C5463     Br5470   1.933       .  S
C5464      C5465   1.408       .  A
C5465      C5466   1.406       .  A
C5465     Br5472   1.932       .  S
C5466      C5467   1.414       .  A
C5466     Br5471   1.927       .  S
C5467      C5468   1.414       .  A
C5468     Br5469   1.934       .  S
