geometry optimzed in LAMMPS
_audit_creation_date              2020-11-30 
_audit_creation_method            'lammps2cif' 
_symmetry_space_group_name_H-M    'P1' 
_symmetry_Int_Tables_number       1 
_symmetry_cell_setting            triclinic 
loop_ 
_symmetry_equiv_pos_as_xyz 
  x,y,z 
_cell_length_a                    30.34345661 
_cell_length_b                    29.695267819844485 
_cell_length_c                    32.31721064356387 
_cell_angle_alpha                 89.20262210956024 
_cell_angle_beta                  89.14180289638325 
_cell_angle_gamma                 90.26930503052156 
loop_ 
_atom_site_label 
_atom_site_type_symbol 
_atom_site_fract_x 
_atom_site_fract_y 
_atom_site_fract_z 
_atom_site_charge 
O1          O  0.02058211  0.97780429  0.02342562    -0.71600
O2          O  0.90481126  0.97261834  0.97858383    -0.71900
O3          O  0.95622516  0.91522026  0.01916312    -0.71700
O4          O  0.96769266  0.03637091  0.98315714    -0.71700
O5          O  0.99719179  0.01549075  0.92515683    -0.71700
O6          O  0.98169760  0.89226236  0.96003362    -0.71700
O7          O  0.93270333  0.95203461  0.91956879    -0.71600
O8          O  0.04748736  0.95426836  0.96501162    -0.71800
V9          V  0.96308075  0.97525127  0.99991580     1.35200
V10         V  0.98946157  0.95408772  0.94356075     1.35200
C11         C  0.05376930  0.96615156  0.00186539     0.77600
C12         C  0.89908872  0.95955273  0.94188692     0.77700
C13         C  0.96405614  0.88313652  0.99501580     0.77500
C14         C  0.98437647  0.04714813  0.94837685     0.77500
O15         O  0.51867466  0.48384955  0.71743315    -0.71600
O16         O  0.63230948  0.48554135  0.76699827    -0.71900
O17         O  0.58732204  0.42771252  0.72151530    -0.71700
O18         O  0.56454964  0.54397158  0.76237386    -0.71700
O19         O  0.53842697  0.51558363  0.81989267    -0.71700
O20         O  0.55738769  0.39770891  0.77675477    -0.71700
O21         O  0.60367025  0.45422234  0.82240489    -0.71600
O22         O  0.49145910  0.45820952  0.77500165    -0.71800
V23         V  0.57509508  0.48505934  0.74322118     1.35200
V24         V  0.54816601  0.45710207  0.79742426     1.35200
C25         C  0.48539375  0.46942291  0.73787589     0.77600
C26         C  0.63728516  0.46735092  0.80232795     0.77700
C27         C  0.57724405  0.39284672  0.74227099     0.77500
C28         C  0.54789098  0.55003495  0.79789712     0.77500
C29         C  0.37154640  0.95846014  0.11170700    -0.02400
C30         C  0.43606629  0.15192633  0.36640970    -0.02400
C31         C  0.57956039  0.88446693  0.86241739    -0.02400
C32         C  0.64835868  0.09063489  0.60614481    -0.02400
O33         O  0.04305649  0.99121968  0.45319361    -0.71600
O34         O  0.05030165  0.11460922  0.48731807    -0.71900
O35         O  0.10534230  0.05583896  0.45308584    -0.71700
O36         O  0.98603952  0.05075607  0.48651559    -0.71700
O37         O  0.00417571  0.02918445  0.54798643    -0.71700
O38         O  0.12546856  0.03538439  0.51462084    -0.71700
O39         O  0.06846366  0.09147378  0.54865001    -0.71600
O40         O  0.06313183  0.96983300  0.51437485    -0.71800
V41         V  0.04625433  0.05245462  0.47124805     1.35200
V42         V  0.06465074  0.03140139  0.53019422     1.35200
C43         C  0.05352680  0.95942020  0.47776451     0.77600
C44         C  0.06343724  0.12377687  0.52342697     0.77700
C45         C  0.13566522  0.05026464  0.47878958     0.77500
C46         C  0.97434243  0.04132326  0.52326342     0.77500
O47         O  0.51041366  0.55063153  0.19643754    -0.71600
O48         O  0.39274513  0.55942906  0.24039810    -0.71900
O49         O  0.44722728  0.61323337  0.19666926    -0.71700
O50         O  0.45507140  0.49451955  0.24081884    -0.71700
O51         O  0.47687186  0.52069893  0.29931125    -0.71700
O52         O  0.47759206  0.63902669  0.25162040    -0.71700
O53         O  0.41875719  0.58985237  0.29576565    -0.71600
O54         O  0.53528428  0.57156660  0.25559270    -0.71800
V55         V  0.45193077  0.55452791  0.21971488     1.35200
V56         V  0.47660733  0.57959480  0.27456105     1.35200
C57         C  0.54298817  0.56185460  0.21827173     0.77600
C58         C  0.38587238  0.57855978  0.27469390     0.77700
C59         C  0.46145032  0.64659209  0.21632782     0.77500
C60         C  0.46656526  0.48703026  0.27777880     0.77500
C61         C  0.16525601  0.42493790  0.64368832    -0.02400
C62         C  0.94965142  0.38838744  0.89049134    -0.02400
C63         C  0.07459156  0.62310490  0.39569856    -0.02400
C64         C  0.87277358  0.58960554  0.14095620    -0.02400
C65         C  0.89711292  0.58555014  0.18502030     0.01500
C66         C  0.93144296  0.55301292  0.19434982     0.04300
C67         C  0.95960806  0.55932761  0.22827797    -0.11800
C68         C  0.95005126  0.59154940  0.25821893     0.23600
C69         C  0.90986407  0.61442340  0.25628052    -0.12300
C70         C  0.88332413  0.61184359  0.22053605     0.05000
C71         C  0.98057151  0.59932112  0.29353134     0.27400
C72         C  0.97559816  0.57429399  0.33045412    -0.13000
C73         C  0.00251512  0.58289802  0.36496694     0.05500
C74         C  0.03845569  0.61508346  0.36178003    -0.09000
C75         C  0.04008629  0.64283532  0.32465199     0.06300
C76         C  0.01277897  0.63339697  0.29084672    -0.13400
Br77       Br  0.89354117  0.65274456  0.30206085    -0.05400
Br78       Br  0.93726163  0.49323835  0.17040328     0.00200
Br79       Br  0.98038237  0.55639113  0.41641587     0.00700
Br80       Br  0.02515891  0.66229368  0.23824962    -0.03800
Br81       Br  0.83316011  0.65186754  0.22135449     0.00800
Br82       Br  0.01054282  0.52138200  0.23556265    -0.03100
Br83       Br  0.93090413  0.52744028  0.33299539    -0.03900
Br84       Br  0.08204758  0.69236184  0.31644198     0.00100
C85         C  0.89014218  0.55108029  0.11014088     0.01500
C86         C  0.86408061  0.51410617  0.09381187     0.04300
C87         C  0.88184946  0.48496857  0.06342280    -0.11800
C88         C  0.92377511  0.49231675  0.04607638     0.23600
C89         C  0.95055542  0.52610534  0.06184230    -0.12300
C90         C  0.93502433  0.55439198  0.09370188     0.05000
C91         C  0.93748204  0.46767970  0.00780742     0.27400
C92         C  0.95689644  0.42513185  0.01000724    -0.13000
C93         C  0.96349555  0.39897968  0.97378723     0.05500
C94         C  0.95342591  0.41692779  0.93275141    -0.09000
C95         C  0.93912754  0.46367695  0.93249251     0.06300
C96         C  0.92905657  0.48688775  0.96919560    -0.13400
Br97       Br  0.00948795  0.53303788  0.03861015    -0.05400
Br98       Br  0.80216848  0.50178176  0.10429792     0.00200
Br99       Br  0.98057979  0.33814802  0.98709734     0.00700
Br100      Br  0.90218090  0.54609363  0.96731842    -0.03800
Br101      Br  0.97931197  0.59498259  0.11492859     0.00800
Br102      Br  0.84783012  0.43486249  0.04253917    -0.03100
Br103      Br  0.97155758  0.40234985  0.06469833    -0.03900
Br104      Br  0.93471998  0.50077146  0.88323537     0.00100
C105        C  0.98549880  0.40282631  0.85596552     0.01500
C106        C  0.98829483  0.37771339  0.81776576     0.04300
C107        C  0.01975505  0.38834399  0.78664710    -0.11800
C108        C  0.04809794  0.42498874  0.79076891     0.23600
C109        C  0.04705404  0.45020807  0.82697918    -0.12300
C110        C  0.01912916  0.43751061  0.86067975     0.05000
C111        C  0.08129682  0.43455551  0.75751095     0.27400
C112        C  0.12409282  0.41802858  0.76096592    -0.13000
C113        C  0.15315846  0.41891428  0.72630883     0.05500
C114        C  0.13872859  0.43533142  0.68627222    -0.09000
C115        C  0.10009756  0.46406161  0.68898412     0.06300
C116        C  0.06974203  0.45875638  0.72206283    -0.13400
Br117      Br  0.08663241  0.50149872  0.83032977    -0.05400
Br118      Br  0.94647111  0.33220065  0.80165599     0.00200
Br119      Br  0.21052707  0.39378488  0.73781950     0.00700
Br120      Br  0.01179218  0.48549627  0.71938201    -0.03800
Br121      Br  0.03812663  0.46324265  0.91268868     0.00800
Br122      Br  0.02291895  0.35413030  0.73588971    -0.03100
Br123      Br  0.14090834  0.39016555  0.81307641    -0.03900
Br124      Br  0.09018038  0.51981027  0.65793239     0.00100
C125        C  0.07068091  0.58947283  0.43455241     0.01500
C126        C  0.08426595  0.54324233  0.43209012     0.04300
C127        C  0.09765552  0.51922790  0.46770331    -0.11800
C128        C  0.09369782  0.53861160  0.50683416     0.23600
C129        C  0.07072871  0.57908168  0.51088218    -0.12300
C130        C  0.05678496  0.60303982  0.47534547     0.05000
C131        C  0.11011143  0.51365456  0.54374152     0.27400
C132        C  0.08569735  0.47758121  0.56020678    -0.13000
C133        C  0.10281752  0.45041426  0.59228313     0.05500
C134        C  0.14738227  0.45709878  0.60742780    -0.09000
C135        C  0.17263419  0.49262960  0.58646544     0.06300
C136        C  0.15184871  0.52304025  0.55922912    -0.13400
Br137      Br  0.05869021  0.60154958  0.56573705    -0.05400
Br138      Br  0.08296416  0.50892414  0.38246440     0.00200
Br139      Br  0.06019352  0.40815260  0.61626017     0.00700
Br140      Br  0.18046384  0.57922179  0.54370908    -0.03800
Br141      Br  0.01204836  0.64762508  0.48564714     0.00800
Br142      Br  0.12616614  0.46116779  0.46267413    -0.03100
Br143      Br  0.02637802  0.46846507  0.54016145    -0.03900
Br144      Br  0.23655174  0.49916725  0.58328367     0.00100
C145        C  0.34061497  0.58847252  0.28977957     0.01500
C146        C  0.31669143  0.55587605  0.31284236     0.04300
C147        C  0.27482121  0.56625382  0.32940508    -0.11800
C148        C  0.25571059  0.60883492  0.32154266     0.23600
C149        C  0.27883953  0.64082012  0.29710500    -0.12300
C150        C  0.32158736  0.63109729  0.28218092     0.05000
C151        C  0.20969567  0.61764177  0.33593874     0.27400
C152        C  0.17461021  0.59958038  0.31403538    -0.13000
C153        C  0.13149039  0.59763999  0.33184957     0.05500
C154        C  0.12268169  0.61459493  0.37362593    -0.09000
C155        C  0.16220022  0.62277290  0.39584875     0.06300
C156        C  0.20161495  0.63468580  0.37530140    -0.13400
Br157      Br  0.25074168  0.69684091  0.28239062    -0.05400
Br158      Br  0.34076726  0.49649624  0.32061861     0.00200
Br159      Br  0.09207817  0.56335949  0.29752194     0.00700
Br160      Br  0.24933807  0.65995823  0.40641983    -0.03800
Br161      Br  0.35338387  0.67615845  0.25066200     0.00800
Br162      Br  0.24301883  0.52130323  0.36172492    -0.03100
Br163      Br  0.18777776  0.57637034  0.25919667    -0.03900
Br164      Br  0.17873671  0.58015666  0.43798642     0.00100
C165        C  0.58894513  0.56687079  0.20110815     0.01500
C166        C  0.61625868  0.60175343  0.21631974     0.04300
C167        C  0.66108176  0.60425769  0.20494897    -0.11800
C168        C  0.67874278  0.57446745  0.17575520     0.23600
C169        C  0.65096112  0.54268946  0.15710429    -0.12300
C170        C  0.60634250  0.53830091  0.17011129     0.05000
C171        C  0.72687689  0.57675915  0.16577130     0.27400
C172        C  0.74321402  0.60972227  0.13831424    -0.13000
C173        C  0.78876981  0.61935146  0.13624991     0.05500
C174        C  0.82074192  0.58703337  0.15145122    -0.09000
C175        C  0.80244422  0.55416978  0.18087295     0.06300
C176        C  0.75651984  0.55149366  0.18919496    -0.13400
Br177      Br  0.67433753  0.50569472  0.11343959    -0.05400
Br178      Br  0.59237383  0.64958633  0.24980854     0.00200
Br179      Br  0.79987944  0.68304089  0.12541730     0.00700
Br180      Br  0.73304350  0.51313117  0.23337118    -0.03800
Br181      Br  0.57025439  0.49265811  0.14543879     0.00800
Br182      Br  0.69900242  0.64848525  0.22987249    -0.03100
Br183      Br  0.70181250  0.64551954  0.10700558    -0.03900
Br184      Br  0.83591404  0.50781931  0.20850194     0.00100
C185        C  0.07685341  0.17013175  0.53582237     0.01500
C186        C  0.11849206  0.17638604  0.55433899     0.04300
C187        C  0.13091654  0.21872090  0.56939686    -0.11800
C188        C  0.10256469  0.25586748  0.56549585     0.23600
C189        C  0.06143317  0.25029049  0.54641077    -0.12300
C190        C  0.04872898  0.20765737  0.53130246     0.05000
C191        C  0.11583068  0.29957499  0.58419990     0.27400
C192        C  0.10774307  0.30620516  0.62626999    -0.13000
C193        C  0.13013007  0.34029719  0.64786815     0.05500
C194        C  0.15501976  0.37533745  0.62612242    -0.09000
C195        C  0.16410991  0.36582790  0.58292321     0.06300
C196        C  0.14400927  0.32928374  0.56261901    -0.13400
Br197      Br  0.02179438  0.30070111  0.54328915    -0.05400
Br198      Br  0.16017782  0.12762140  0.55843641     0.00200
Br199      Br  0.13541316  0.32431193  0.70519128     0.00700
Br200      Br  0.15399729  0.31956955  0.50414085    -0.03800
Br201      Br  0.99188608  0.20045903  0.50669428     0.00800
Br202      Br  0.18641335  0.22550195  0.59741078    -0.03100
Br203      Br  0.06535995  0.26685732  0.65440908    -0.03900
Br204      Br  0.20837673  0.39777519  0.55050882     0.00100
C205        C  0.06931286  0.67506238  0.41070158     0.01500
C206        C  0.03043128  0.70272635  0.40264665     0.04300
C207        C  0.03056201  0.74991055  0.40937157    -0.11800
C208        C  0.06712216  0.77139862  0.42615903     0.23600
C209        C  0.10365472  0.74555838  0.43696603    -0.12300
C210        C  0.10275880  0.69809233  0.43376646     0.05000
C211        C  0.06400436  0.81968307  0.43917885     0.25800
C212        C  0.07781145  0.85493195  0.41238433    -0.13000
C213        C  0.07443891  0.90034555  0.42480303     0.05500
C214        C  0.05600992  0.91124512  0.46404689    -0.09000
C215        C  0.04243629  0.87544402  0.49097028     0.06300
C216        C  0.04657815  0.83014149  0.47859930    -0.13400
Br217      Br  0.15421206  0.77584575  0.45987792    -0.05400
Br218      Br  0.97158963  0.67946442  0.39200887     0.00200
Br219      Br  0.09884823  0.94687418  0.38890511     0.00700
Br220      Br  0.02826625  0.78177485  0.51574613    -0.03800
Br221      Br  0.13616006  0.66977486  0.47685419     0.00800
Br222      Br  0.97952011  0.78663938  0.39702844    -0.03100
Br223      Br  0.10189512  0.84035268  0.35867529    -0.03900
Br224      Br  0.01696054  0.88751345  0.54479215     0.00100
C225        C  0.69986905  0.08515638  0.59442508     0.01500
C226        C  0.71430470  0.04974846  0.56661705     0.04300
C227        C  0.75930080  0.04342266  0.55641365    -0.11800
C228        C  0.79191963  0.06809232  0.57604597     0.23600
C229        C  0.77990216  0.10231540  0.60304859    -0.12300
C230        C  0.73519626  0.11463023  0.60818640     0.05000
C231        C  0.83896418  0.06175683  0.56383183     0.27400
C232        C  0.86597815  0.03144572  0.58550167    -0.13000
C233        C  0.90949325  0.02323578  0.57157844     0.05500
C234        C  0.92712039  0.04700277  0.53655928    -0.09000
C235        C  0.89933485  0.07781270  0.51510048     0.06300
C236        C  0.85556702  0.08452701  0.52852489    -0.13400
Br237      Br  0.82636334  0.13403263  0.63136805    -0.05400
Br238      Br  0.67705499  0.00267339  0.54587634     0.00200
Br239      Br  0.94283057  0.97689751  0.59937049     0.00700
Br240      Br  0.81725067  0.12475065  0.49818527    -0.03800
Br241      Br  0.73009730  0.17744620  0.62364125     0.00800
Br242      Br  0.77787467  0.99841470  0.51676766    -0.03100
Br243      Br  0.84295399  0.00102737  0.63437930    -0.03900
Br244      Br  0.91939124  0.11288949  0.46741027     0.00100
C245        C  0.63166996  0.05294643  0.63951813     0.01500
C246        C  0.65814653  0.01615324  0.65634550     0.04300
C247        C  0.64087134  0.98640848  0.68727728    -0.11800
C248        C  0.60160597  0.99605985  0.70833788     0.23600
C249        C  0.57557260  0.03146647  0.69437607    -0.12300
C250        C  0.58860774  0.05762796  0.65934183     0.05000
C251        C  0.58915685  0.97018915  0.74691556     0.27400
C252        C  0.56767383  0.92866770  0.74461840    -0.13000
C253        C  0.56381475  0.89975646  0.77992014     0.05500
C254        C  0.57588026  0.91524061  0.82102037    -0.09000
C255        C  0.59190276  0.96141205  0.82205026     0.06300
C256        C  0.60095213  0.98653399  0.78550014    -0.13400
Br257      Br  0.52086108  0.04304971  0.72407716    -0.05400
Br258      Br  0.72104897  0.00699321  0.64949292     0.00200
Br259      Br  0.55007477  0.83878056  0.76393324     0.00700
Br260      Br  0.63084056  0.04422144  0.78769508    -0.03800
Br261      Br  0.54311012  0.09677867  0.63929892     0.00800
Br262      Br  0.67243051  0.93246409  0.70364773    -0.03100
Br263      Br  0.54657647  0.91101122  0.69065567    -0.03900
Br264      Br  0.60171696  0.99424503  0.87252273     0.00100
C265        C  0.44020810  0.20612057  0.35992460     0.01500
C266        C  0.47685813  0.23335490  0.37416900     0.04300
C267        C  0.48434481  0.27774749  0.35863392    -0.11800
C268        C  0.45252802  0.30005597  0.33529404     0.23600
C269        C  0.41271658  0.27802556  0.32768750    -0.12300
C270        C  0.40625846  0.23209726  0.33929661     0.05000
C271        C  0.45922013  0.34830558  0.32185287     0.27400
C272        C  0.44727251  0.38366650  0.34844203    -0.13000
C273        C  0.45313848  0.42913016  0.33571127     0.05500
C274        C  0.46747297  0.43974961  0.29470391    -0.09000
C275        C  0.48080539  0.40411033  0.26873953     0.06300
C276        C  0.47737942  0.35895427  0.28251507    -0.13400
Br277      Br  0.36699998  0.31215345  0.30015937    -0.05400
Br278      Br  0.51122604  0.22101670  0.42306001     0.00200
Br279      Br  0.44184184  0.47591725  0.37530616     0.00700
Br280      Br  0.49807772  0.31176551  0.24714160    -0.03800
Br281      Br  0.34884051  0.20938084  0.32589968     0.00800
Br282      Br  0.53785707  0.31043976  0.37121941    -0.03100
Br283      Br  0.42123480  0.36943124  0.40193881    -0.03900
Br284      Br  0.50668455  0.41653857  0.21476569     0.00100
C285        C  0.62380352  0.08839628  0.56237047     0.01500
C286        C  0.59029962  0.05550957  0.55134300     0.04300
C287        C  0.56855131  0.05883342  0.51281031    -0.11800
C288        C  0.57456684  0.09650686  0.48667564     0.23600
C289        C  0.61030374  0.12529412  0.49363703    -0.12300
C290        C  0.63680924  0.11923281  0.52901315     0.05000
C291        C  0.54035113  0.10798151  0.45506372     0.27400
C292        C  0.55005597  0.11061767  0.41231794    -0.13000
C293        C  0.51841992  0.12820774  0.38446975     0.05500
C294        C  0.47269963  0.13276680  0.39704054    -0.09000
C295        C  0.46311291  0.11721780  0.43874879     0.06300
C296        C  0.49655186  0.11474453  0.46801386    -0.13400
Br297      Br  0.61854991  0.17829539  0.45843420    -0.05400
Br298      Br  0.57450430  0.00100945  0.58258175     0.00200
Br299      Br  0.54137092  0.14824181  0.33134238     0.00700
Br300      Br  0.48004771  0.11635188  0.52605884    -0.03800
Br301      Br  0.68614207  0.16045501  0.53127459     0.00800
Br302      Br  0.52981364  0.01130629  0.49398166    -0.03100
Br303      Br  0.60614462  0.08889658  0.39187589    -0.03900
Br304      Br  0.41462890  0.07800448  0.45531529     0.00100
C305        C  0.18081224  0.06578180  0.46789237     0.01500
C306        C  0.21820728  0.04120721  0.48009093     0.04300
C307        C  0.26073998  0.05782512  0.47028149    -0.11800
C308        C  0.26595266  0.09753233  0.44611842     0.23600
C309        C  0.22863887  0.12183288  0.43371126    -0.12300
C310        C  0.18645671  0.10727706  0.44612493     0.05000
C311        C  0.30955795  0.11068955  0.42830210     0.27400
C312        C  0.33209804  0.14893004  0.44207094    -0.13000
C313        C  0.37176598  0.16341477  0.42212089     0.05500
C314        C  0.38807923  0.14137587  0.38537266    -0.09000
C315        C  0.35841009  0.10836467  0.36844163     0.06300
C316        C  0.32389659  0.08949391  0.39235753    -0.13400
Br317      Br  0.23510459  0.17392785  0.39738850    -0.05400
Br318      Br  0.21144485  0.98334197  0.50744168     0.00200
Br319      Br  0.40246666  0.21173672  0.44877281     0.00700
Br320      Br  0.29172347  0.03733272  0.37276090    -0.03800
Br321      Br  0.13734943  0.14676532  0.43497230     0.00800
Br322      Br  0.31181892  0.02514535  0.48827441    -0.03100
Br323      Br  0.30869250  0.18004111  0.48974986    -0.03900
Br324      Br  0.34650927  0.10187320  0.31055121     0.00100
C325        C  0.54372272  0.89758654  0.89725905     0.01500
C326        C  0.51542306  0.93663919  0.89522434     0.04300
C327        C  0.49352331  0.95181445  0.93118797    -0.11800
C328        C  0.48422364  0.92183839  0.96423444     0.23600
C329        C  0.50165819  0.87827731  0.96230233    -0.12300
C330        C  0.53497001  0.86813598  0.93278081     0.05000
C331        C  0.45737517  0.93628921  0.00123958     0.27400
C332        C  0.47674399  0.93916122  0.04040412    -0.13000
C333        C  0.45222322  0.95430419  0.07504252     0.05500
C334        C  0.40542905  0.96238789  0.07254770    -0.09000
C335        C  0.39085419  0.97012773  0.03083587     0.06300
C336        C  0.41401084  0.95180955  0.99683700    -0.13400
Br337      Br  0.48069950  0.83292998  0.00150612    -0.05400
Br338      Br  0.49348063  0.96510912  0.84513628     0.00200
Br339      Br  0.48918727  0.97706851  0.11832556     0.00700
Br340      Br  0.38419244  0.94461051  0.94485290    -0.03800
Br341      Br  0.57028020  0.81638528  0.94738090     0.00800
Br342      Br  0.47745184  0.01459056  0.93489828    -0.03100
Br343      Br  0.53809991  0.92317611  0.04703995    -0.03900
Br344      Br  0.34590448  0.01349003  0.01637960     0.00100
C345        C  0.44262671  0.12584419  0.32356700     0.01500
C346        C  0.45019393  0.07775698  0.32139957     0.04300
C347        C  0.45045272  0.05562251  0.28285314    -0.11800
C348        C  0.43076302  0.07598819  0.24835422     0.23600
C349        C  0.42480390  0.12293414  0.24932507    -0.12300
C350        C  0.43864077  0.14754329  0.28377060     0.05000
C351        C  0.41405467  0.04830799  0.21302965     0.27400
C352        C  0.42876026  0.05674404  0.17210979    -0.13000
C353        C  0.40956478  0.03418632  0.13843489     0.05500
C354        C  0.38085372  0.99609970  0.14524225    -0.09000
C355        C  0.36203487  0.99265981  0.18615615     0.06300
C356        C  0.38017530  0.01613396  0.21965685    -0.13400
Br357      Br  0.39217768  0.15429667  0.20706981    -0.05400
Br358      Br  0.45792840  0.03761471  0.36813118     0.00200
Br359      Br  0.41826215  0.06295126  0.08481372     0.00700
Br360      Br  0.36126660  0.99866452  0.27514848    -0.03800
Br361      Br  0.46790476  0.20261941  0.26797212     0.00800
Br362      Br  0.47789461  0.99752789  0.27719272    -0.03100
Br363      Br  0.47895993  0.09608220  0.16216727    -0.03900
Br364      Br  0.30856890  0.96010725  0.19841482     0.00100
C365        C  0.38025420  0.91044095  0.13444372     0.01500
C366        C  0.34990979  0.87257583  0.14037445     0.04300
C367        C  0.36659868  0.82870400  0.14878295    -0.11800
C368        C  0.41213319  0.82143774  0.15157055     0.23600
C369        C  0.44078651  0.85811601  0.14843488    -0.12300
C370        C  0.42332678  0.90142976  0.14941245     0.05000
C371        C  0.42900891  0.77770309  0.16738774     0.27400
C372        C  0.43434976  0.77135590  0.21029098    -0.13000
C373        C  0.44951166  0.72999924  0.22614280     0.05500
C374        C  0.45642544  0.69323804  0.19920503    -0.09000
C375        C  0.45317795  0.70071169  0.15578268     0.06300
C376        C  0.43963671  0.74288655  0.14013820    -0.13400
Br377      Br  0.50349358  0.84992257  0.15453379    -0.05400
Br378      Br  0.28589723  0.87522140  0.14298536     0.00200
Br379      Br  0.45783034  0.72471310  0.28531636     0.00700
Br380      Br  0.43408317  0.75307387  0.08137216    -0.03800
Br381      Br  0.44312940  0.93055275  0.19847610     0.00800
Br382      Br  0.32775027  0.77720122  0.15698601    -0.03100
Br383      Br  0.41790085  0.81877315  0.24782464    -0.03900
Br384      Br  0.46861195  0.65439122  0.11674335     0.00100
C385        C  0.90067297  0.40043885  0.87630232     0.01500
C386        C  0.88830444  0.42005443  0.83643889     0.04300
C387        C  0.84358913  0.42634860  0.82691514    -0.11800
C388        C  0.81150220  0.42567753  0.85823252     0.23600
C389        C  0.82258417  0.41298220  0.89839678    -0.12300
C390        C  0.86498113  0.39642680  0.90663208     0.05000
C391        C  0.76552667  0.43718101  0.84806110     0.27400
C392        C  0.75359015  0.48244498  0.84089851    -0.13000
C393        C  0.71162343  0.49269970  0.82552729     0.05500
C394        C  0.68117080  0.45776504  0.81882333    -0.09000
C395        C  0.69244954  0.41266130  0.82829886     0.06300
C396        C  0.73474769  0.40240514  0.84225491    -0.13400
Br397      Br  0.77809089  0.41667964  0.94178994    -0.05400
Br398      Br  0.92588219  0.44969231  0.79483780     0.00200
Br399      Br  0.69535535  0.55442880  0.81484093     0.00700
Br400      Br  0.75094831  0.34039570  0.85220481    -0.03800
Br401      Br  0.86905199  0.36271995  0.95824925     0.00800
Br402      Br  0.82521508  0.43785662  0.77033618    -0.03100
Br403      Br  0.79497291  0.53006042  0.85220619    -0.03900
Br404      Br  0.65106041  0.36391203  0.82076119     0.00100
C405        C  0.59010426  0.34793891  0.72660446     0.01500
C406        C  0.55968149  0.31180220  0.72703286     0.04300
C407        C  0.57166057  0.27014710  0.70993396    -0.11800
C408        C  0.61401286  0.26429435  0.69236320     0.23600
C409        C  0.64477552  0.29981302  0.69269378    -0.12300
C410        C  0.63306104  0.34146100  0.70981888     0.05000
C411        C  0.62477301  0.22177632  0.67080560     0.27400
C412        C  0.64188280  0.18483742  0.69228516    -0.13000
C413        C  0.65136022  0.14430417  0.67139744     0.05500
C414        C  0.63819393  0.13755710  0.62882363    -0.09000
C415        C  0.61428764  0.17525516  0.61069048     0.06300
C416        C  0.61467574  0.21779831  0.62917259    -0.13400
Br417      Br  0.70266970  0.29146979  0.66850705    -0.05400
Br418      Br  0.50055723  0.31980135  0.74832247     0.00200
Br419      Br  0.68833520  0.10325859  0.70205215     0.00700
Br420      Br  0.59843633  0.27144062  0.59796841    -0.03800
Br421      Br  0.67710018  0.38872267  0.71116152     0.00800
Br422      Br  0.52963974  0.22114346  0.70923907    -0.03100
Br423      Br  0.65550176  0.19212440  0.75013771    -0.03900
Br424      Br  0.56755517  0.17338986  0.57053569     0.00100
C425        C  0.54051533  0.59686041  0.81224871     0.01500
C426        C  0.52568659  0.62969164  0.78360434     0.04300
C427        C  0.52845917  0.67577269  0.79275332    -0.11800
C428        C  0.54464457  0.68952035  0.83120005     0.23600
C429        C  0.55500402  0.65675539  0.86156477    -0.12300
C430        C  0.55267875  0.61047866  0.85229599     0.05000
C431        C  0.55298410  0.73817408  0.83900248     0.27400
C432        C  0.59620523  0.75454943  0.83901383    -0.13000
C433        C  0.60520534  0.79783017  0.85394509     0.05500
C434        C  0.57110815  0.83197493  0.85439158    -0.09000
C435        C  0.52649342  0.81435582  0.85108654     0.06300
C436        C  0.51833594  0.76760701  0.84774044    -0.13400
Br437      Br  0.57411376  0.67571503  0.91539034    -0.05400
Br438      Br  0.49973652  0.61165425  0.73211254     0.00200
Br439      Br  0.66016063  0.79861236  0.88412158     0.00700
Br440      Br  0.45929998  0.74328341  0.85400372    -0.03800
Br441      Br  0.56772909  0.56661127  0.89429867     0.00800
Br442      Br  0.51199228  0.72008294  0.75166191    -0.03100
Br443      Br  0.64379958  0.71639082  0.82015214    -0.03900
Br444      Br  0.47454795  0.85146097  0.84553782     0.00100
C445        C  0.44031864  0.46443255  0.71973339     0.01500
C446        C  0.40721419  0.43902196  0.74174552     0.04300
C447        C  0.36433475  0.43584125  0.72630310    -0.11800
C448        C  0.35374122  0.45533479  0.68790559     0.23600
C449        C  0.38626231  0.47927414  0.66510653    -0.12300
C450        C  0.42928334  0.48416207  0.68081582     0.05000
C451        C  0.30802281  0.45002103  0.67208567     0.27400
C452        C  0.29587695  0.41039925  0.65230270    -0.13000
C453        C  0.25092404  0.39960284  0.64616904     0.05500
C454        C  0.21654010  0.43289266  0.65272597    -0.09000
C455        C  0.23111486  0.47401560  0.67239870     0.06300
C456        C  0.27581718  0.48151168  0.68227397    -0.13400
Br457      Br  0.37114418  0.50566829  0.61231828    -0.05400
Br458      Br  0.41857989  0.40521240  0.79242341     0.00200
Br459      Br  0.24184624  0.33530984  0.63997188     0.00700
Br460      Br  0.29441522  0.53594514  0.70977158    -0.03800
Br461      Br  0.47178955  0.51811658  0.64778643     0.00800
Br462      Br  0.31941761  0.40480266  0.75863910    -0.03100
Br463      Br  0.34245564  0.36947077  0.63598548    -0.03900
Br464      Br  0.19297539  0.52356227  0.68569482     0.00100
C465        C  0.94912819  0.83690548  0.00672524     0.01500
C466        C  0.90537997  0.83023469  0.02167880     0.04300
C467        C  0.89103074  0.78728851  0.03492308    -0.11800
C468        C  0.92017010  0.75063205  0.03407032     0.23600
C469        C  0.96279682  0.75637476  0.01664343    -0.12300
C470        C  0.97752599  0.79954946  0.00351404     0.05000
C471        C  0.90940802  0.70999389  0.05998869     0.27400
C472        C  0.92166967  0.70974170  0.10135102    -0.13000
C473        C  0.91092122  0.67293878  0.12802741     0.05500
C474        C  0.88457114  0.63491215  0.11435739    -0.09000
C475        C  0.87064214  0.63843006  0.07143866     0.06300
C476        C  0.88399258  0.67469854  0.04505916    -0.13400
Br477      Br  0.00140864  0.70517691  0.01290748    -0.05400
Br478      Br  0.86431964  0.87968596  0.02512405     0.00200
Br479      Br  0.93786425  0.68035456  0.18049593     0.00700
Br480      Br  0.86536643  0.67852854  0.98806753    -0.03800
Br481      Br  0.03798825  0.80822851  0.98584523     0.00800
Br482      Br  0.83191736  0.77896143  0.05672695    -0.03100
Br483      Br  0.95362488  0.76255575  0.12096521    -0.03900
Br484      Br  0.82812246  0.59832629  0.04700374     0.00100
C485        C  0.62937988  0.89376949  0.87668554     0.01500
C486        C  0.64290393  0.90758205  0.91763224     0.04300
C487        C  0.68799965  0.91252144  0.92713454    -0.11800
C488        C  0.71978494  0.91665651  0.89559527     0.23600
C489        C  0.70767200  0.90843521  0.85482843    -0.12300
C490        C  0.66489293  0.89261358  0.84606377     0.05000
C491        C  0.76632002  0.92857098  0.90557183     0.27400
C492        C  0.77780942  0.97304605  0.91637861    -0.13000
C493        C  0.82161705  0.98368958  0.92683779     0.05500
C494        C  0.85419634  0.95004448  0.92653924    -0.09000
C495        C  0.84299125  0.90597567  0.91419590     0.06300
C496        C  0.79911601  0.89513546  0.90463199    -0.13400
Br497      Br  0.75104086  0.91759702  0.81090116    -0.05400
Br498      Br  0.60596594  0.93143552  0.96110608     0.00200
Br499      Br  0.83782909  0.04487743  0.93932328     0.00700
Br500      Br  0.78340957  0.83378405  0.89196531    -0.03800
Br501      Br  0.65987918  0.86435325  0.79275515     0.00800
Br502      Br  0.70715558  0.91455716  0.98410367    -0.03100
Br503      Br  0.73338864  0.01929335  0.91739240    -0.03900
Br504      Br  0.88714892  0.85947211  0.91146317     0.00100
C505        C  0.09903169  0.96571084  0.01907084     0.01500
C506        C  0.10847986  0.93961147  0.05470289     0.04300
C507        C  0.15180569  0.93814769  0.07014692    -0.11800
C508        C  0.18645409  0.96114966  0.04910467     0.23600
C509        C  0.17710322  0.98667343  0.01317046    -0.12300
C510        C  0.13356912  0.98956247  0.99862168     0.05000
C511        C  0.23252368  0.96010437  0.06529269     0.27400
C512        C  0.24682798  0.99405917  0.09155414    -0.13000
C513        C  0.29141878  0.99681495  0.10367022     0.05500
C514        C  0.32224032  0.96082282  0.09468608    -0.09000
C515        C  0.30675556  0.92753970  0.06568143     0.06300
C516        C  0.26276811  0.92794925  0.05135824    -0.13400
Br517      Br  0.22428346  0.01781749  0.98391973    -0.05400
Br518      Br  0.06268213  0.90335835  0.08077622     0.00200
Br519      Br  0.30713440  0.05595844  0.12376324     0.00700
Br520      Br  0.24270474  0.88368393  0.01244883    -0.03800
Br521      Br  0.12104649  0.02796737  0.95161687     0.00800
Br522      Br  0.16374577  0.90495424  0.12037023    -0.03100
Br523      Br  0.20425532  0.03887601  0.10891962    -0.03900
Br524      Br  0.34329403  0.87859920  0.04504993     0.00100
C525        C  0.98763854  0.09597571  0.93619294     0.01500
C526        C  0.98041083  0.11111676  0.89502859     0.04300
C527        C  0.97742259  0.15777455  0.88591754    -0.11800
C528        C  0.97975993  0.18960551  0.91785332     0.23600
C529        C  0.98901627  0.17476774  0.95833486    -0.12300
C530        C  0.99436716  0.12855299  0.96720880     0.05000
C531        C  0.97208361  0.23865268  0.90910046     0.27400
C532        C  0.00754228  0.26844327  0.90402196    -0.13000
C533        C  0.00049877  0.31546072  0.89963975     0.05500
C534        C  0.95641352  0.33442641  0.89625862    -0.09000
C535        C  0.92153365  0.30047718  0.89385967     0.06300
C536        C  0.92923889  0.25504462  0.90538949    -0.13400
Br537      Br  0.99350047  0.21791304  0.00212977    -0.05400
Br538      Br  0.97229297  0.06880430  0.85097010     0.00200
Br539      Br  0.05399438  0.35068140  0.90384282     0.00700
Br540      Br  0.88053986  0.21344011  0.91506757    -0.03800
Br541      Br  0.01345785  0.11079744  0.02188110     0.00800
Br542      Br  0.96995357  0.17859709  0.82961108    -0.03100
Br543      Br  0.06653019  0.24360476  0.90531667    -0.03900
Br544      Br  0.86534085  0.30639459  0.86588295     0.00100
loop_ 
_geom_bond_atom_site_label_1 
_geom_bond_atom_site_label_2 
_geom_bond_distance 
_geom_bond_site_symmetry_2 
_ccdc_geom_bond_type 
O1            V9   1.915   1_454  S
O1           C11   1.268       .  A
O2            V9   1.909       .  S
O2           C12   1.267       .  A
O3            V9   1.889   1_554  S
O3           C13   1.261   1_554  A
O4            V9   1.891   1_545  S
O4           C14   1.262       .  A
O5           V10   1.922   1_545  S
O5           C14   1.270       .  A
O6           V10   1.917       .  S
O6           C13   1.269       .  A
O7           V10   1.900       .  S
O7           C12   1.263       .  A
O8           V10   1.902   1_455  S
O8           C11   1.264   1_556  A
V9           V10   2.085       .  T
C11         C505   1.489       .  S
C12         C494   1.484       .  S
C13         C465   1.486   1_556  S
C14         C525   1.500       .  S
O15          V23   1.916       .  S
O15          C25   1.268       .  A
O16          V23   1.909       .  S
O16          C26   1.268       .  A
O17          V23   1.887       .  S
O17          C27   1.260       .  A
O18          V23   1.891       .  S
O18          C28   1.263       .  A
O19          V24   1.914       .  S
O19          C28   1.267       .  A
O20          V24   1.915       .  S
O20          C27   1.269       .  A
O21          V24   1.880       .  S
O21          C26   1.258       .  A
O22          V24   1.877       .  S
O22          C25   1.257       .  A
V23          V24   2.082       .  T
C25         C445   1.504       .  S
C26         C394   1.469       .  S
C27         C405   1.485       .  S
C28         C425   1.489       .  S
C29         C334   1.621       .  S
C29         C354   1.595       .  S
C29         C365   1.620       .  S
C29         C514   1.603       .  S
C30         C265   1.624       .  S
C30         C294   1.601       .  S
C30         C314   1.599       .  S
C30         C345   1.606       .  S
C31         C254   1.615       .  S
C31         C325   1.607       .  S
C31         C434   1.604       .  S
C31         C485   1.611       .  S
C32         C225   1.612       .  S
C32         C245   1.618       .  S
C32         C285   1.611       .  S
C32         C414   1.612       .  S
O33          V41   1.920   1_565  S
O33          C43   1.270       .  A
O34          V41   1.928       .  S
O34          C44   1.271       .  A
O35          V41   1.880       .  S
O35          C45   1.259       .  A
O36          V41   1.886   1_655  S
O36          C46   1.262       .  A
O37          V42   1.915       .  S
O37          C46   1.267   1_455  A
O38          V42   1.908       .  S
O38          C45   1.267       .  A
O39          V42   1.892       .  S
O39          C44   1.261       .  A
O40          V42   1.906   1_565  S
O40          C43   1.265       .  A
V41          V42   2.082       .  T
C43         C214   1.505       .  S
C44         C185   1.495       .  S
C45         C305   1.479       .  S
C46         C234   1.501       .  S
O47          V55   1.922       .  S
O47          C57   1.269       .  A
O48          V55   1.914       .  S
O48          C58   1.267       .  A
O49          V55   1.893       .  S
O49          C59   1.262       .  A
O50          V55   1.902       .  S
O50          C60   1.266       .  A
O51          V56   1.913       .  S
O51          C60   1.267       .  A
O52          V56   1.905       .  S
O52          C59   1.266       .  A
O53          V56   1.902       .  S
O53          C58   1.263       .  A
O54          V56   1.892       .  S
O54          C57   1.263       .  A
V55          V56   2.080       .  T
C57         C165   1.499       .  S
C58         C145   1.483       .  S
C59         C374   1.494       .  S
C60         C274   1.500       .  S
C61         C114   1.618       .  S
C61         C134   1.604       .  S
C61         C194   1.616       .  S
C61         C454   1.605       .  S
C62          C94   1.623       .  S
C62         C105   1.599       .  S
C62         C385   1.602       .  S
C62         C534   1.625       .  S
C63          C74   1.582       .  S
C63         C125   1.596       .  S
C63         C154   1.637       .  S
C63         C205   1.632       .  S
C64          C65   1.617       .  S
C64          C85   1.612       .  S
C64         C174   1.611       .  S
C64         C474   1.622       .  S
C65          C66   1.456       .  A
C65          C70   1.455       .  A
C66          C67   1.414       .  A
C66         Br78   1.954       .  S
C67          C68   1.399       .  A
C67         Br82   1.932   1_655  S
C68          C71   1.500       .  S
C68          C69   1.400       .  A
C69          C70   1.421       .  A
C69         Br77   1.939       .  S
C70         Br81   1.936       .  S
C71          C72   1.403       .  A
C71          C76   1.404   1_655  A
C72          C73   1.418   1_655  A
C72         Br83   1.938       .  S
C73          C74   1.448       .  A
C73         Br79   1.939   1_455  S
C74          C75   1.446       .  A
C75          C76   1.411       .  A
C75         Br84   1.953       .  S
C76         Br80   1.925       .  S
C85          C86   1.459       .  A
C85          C90   1.457       .  A
C86          C87   1.420       .  A
C86         Br98   1.936       .  S
C87          C88   1.397       .  A
C87        Br102   1.941       .  S
C88          C91   1.500       .  S
C88          C89   1.395       .  A
C89          C90   1.415       .  A
C89         Br97   1.938   1_655  S
C90        Br101   1.940       .  S
C91          C92   1.398       .  A
C91          C96   1.392   1_554  A
C92          C93   1.426   1_554  A
C92        Br103   1.942       .  S
C93          C94   1.459       .  A
C93         Br99   1.926       .  S
C94          C95   1.456       .  A
C95          C96   1.410       .  A
C95        Br104   1.930       .  S
C96        Br100   1.942       .  S
C105        C106   1.453       .  A
C105        C110   1.458   1_655  A
C106        C107   1.408   1_655  A
C106       Br118   1.932       .  S
C107        C108   1.393       .  A
C107       Br122   1.943       .  S
C108        C111   1.486       .  S
C108        C109   1.398       .  A
C109        C110   1.416       .  A
C109       Br117   1.940       .  S
C110       Br121   1.950       .  S
C111        C112   1.396       .  A
C111        C116   1.394       .  A
C112        C113   1.415       .  A
C112       Br123   1.942       .  S
C113        C114   1.451       .  A
C113       Br119   1.936       .  S
C114        C115   1.455       .  A
C115        C116   1.407       .  A
C115       Br124   1.951       .  S
C116       Br120   1.935       .  S
C125        C126   1.438       .  A
C125        C130   1.441       .  A
C126        C127   1.411       .  A
C126       Br138   1.913       .  S
C127        C128   1.400       .  A
C127       Br142   1.940       .  S
C128        C131   1.489       .  S
C128        C129   1.399       .  A
C129        C130   1.414       .  A
C129       Br137   1.933       .  S
C130       Br141   1.929       .  S
C131        C132   1.394       .  A
C131        C136   1.397       .  A
C132        C133   1.411       .  A
C132       Br143   1.941       .  S
C133        C134   1.459       .  A
C133       Br139   1.943       .  S
C134        C135   1.455       .  A
C135        C136   1.410       .  A
C135       Br144   1.949       .  S
C136       Br140   1.934       .  S
C145        C146   1.406       .  A
C145        C150   1.414       .  A
C146        C147   1.408       .  A
C146       Br158   1.926       .  S
C147        C148   1.415       .  A
C147       Br162   1.929       .  S
C148        C151   1.491       .  S
C148        C149   1.405       .  A
C149        C150   1.410       .  A
C149       Br157   1.930       .  S
C150       Br161   1.918       .  S
C151        C152   1.396       .  A
C151        C156   1.394       .  A
C152        C153   1.422       .  A
C152       Br163   1.947       .  S
C153        C154   1.469       .  A
C153       Br159   1.938       .  S
C154        C155   1.428       .  A
C155        C156   1.401       .  A
C155       Br164   1.920       .  S
C156       Br160   1.930       .  S
C165        C166   1.421       .  A
C165        C170   1.419       .  A
C166        C167   1.405       .  A
C166       Br178   1.935       .  S
C167        C168   1.404       .  A
C167       Br182   1.934       .  S
C168        C171   1.492       .  S
C168        C169   1.410       .  A
C169        C170   1.416       .  A
C169       Br177   1.929       .  S
C170       Br181   1.927       .  S
C171        C172   1.396       .  A
C171        C176   1.399       .  A
C172        C173   1.411       .  A
C172       Br183   1.937       .  S
C173        C174   1.454       .  A
C173       Br179   1.946       .  S
C174        C175   1.455       .  A
C175        C176   1.417       .  A
C175       Br184   1.931       .  S
C176       Br180   1.939       .  S
C185        C186   1.419       .  A
C185        C190   1.414       .  A
C186        C187   1.406       .  A
C186       Br198   1.932       .  S
C187        C188   1.408       .  A
C187       Br202   1.935       .  S
C188        C191   1.495       .  S
C188        C189   1.410       .  A
C189        C190   1.417       .  A
C189       Br197   1.927       .  S
C190       Br201   1.922   1_455  S
C191        C192   1.395       .  A
C191        C196   1.398       .  A
C192        C193   1.415       .  A
C192       Br203   1.941       .  S
C193        C194   1.450       .  A
C193       Br199   1.915       .  S
C194        C195   1.451       .  A
C195        C196   1.416       .  A
C195       Br204   1.929       .  S
C196       Br200   1.935       .  S
C205        C206   1.465       .  A
C205        C210   1.443       .  A
C206        C207   1.421       .  A
C206       Br218   1.948   1_455  S
C207        C208   1.398       .  A
C207       Br222   1.942   1_455  S
C208        C211   1.503       .  S
C208        C209   1.397       .  A
C209        C210   1.415       .  A
C209       Br217   1.937       .  S
C210       Br221   1.921       .  S
C211        C212   1.407       .  A
C211        C216   1.411       .  A
C212        C213   1.416       .  A
C212       Br223   1.929       .  S
C213        C214   1.420       .  A
C213       Br219   1.930       .  S
C214        C215   1.420       .  A
C215        C216   1.414       .  A
C215       Br224   1.932       .  S
C216       Br220   1.933       .  S
C225        C226   1.457       .  A
C225        C230   1.459       .  A
C226        C227   1.414       .  A
C226       Br238   1.927       .  S
C227        C228   1.394       .  A
C227       Br242   1.944   1_545  S
C228        C231   1.489       .  S
C228        C229   1.395       .  A
C229        C230   1.415       .  A
C229       Br237   1.940       .  S
C230       Br241   1.944       .  S
C231        C232   1.407       .  A
C231        C236   1.404       .  A
C232        C233   1.412       .  A
C232       Br243   1.929       .  S
C233        C234   1.422       .  A
C233       Br239   1.931   1_545  S
C234        C235   1.427       .  A
C235        C236   1.407       .  A
C235       Br244   1.937       .  S
C236       Br240   1.938       .  S
C245        C246   1.463       .  A
C245        C250   1.455       .  A
C246        C247   1.418   1_545  A
C246       Br258   1.939       .  S
C247        C248   1.396       .  A
C247       Br262   1.941       .  S
C248        C251   1.498       .  S
C248        C249   1.392   1_565  A
C249        C250   1.415       .  A
C249       Br257   1.940       .  S
C250       Br261   1.923       .  S
C251        C252   1.395       .  A
C251        C256   1.395       .  A
C252        C253   1.421       .  A
C252       Br263   1.945       .  S
C253        C254   1.463       .  A
C253       Br259   1.935       .  S
C254        C255   1.454       .  A
C255        C256   1.411       .  A
C255       Br264   1.938       .  S
C256       Br260   1.937   1_565  S
C265        C266   1.456       .  A
C265        C270   1.454       .  A
C266        C267   1.420       .  A
C266       Br278   1.938       .  S
C267        C268   1.398       .  A
C267       Br282   1.939       .  S
C268        C271   1.503       .  S
C268        C269   1.398       .  A
C269        C270   1.421       .  A
C269       Br277   1.941       .  S
C270       Br281   1.923       .  S
C271        C272   1.411       .  A
C271        C276   1.409       .  A
C272        C273   1.416       .  A
C272       Br283   1.931       .  S
C273        C274   1.419       .  A
C273       Br279   1.930       .  S
C274        C275   1.416       .  A
C275        C276   1.410       .  A
C275       Br284   1.932       .  S
C276       Br280   1.923       .  S
C285        C286   1.458       .  A
C285        C290   1.454       .  A
C286        C287   1.420       .  A
C286       Br298   1.950       .  S
C287        C288   1.402       .  A
C287       Br302   1.943       .  S
C288        C291   1.504       .  S
C288        C289   1.400       .  A
C289        C290   1.418       .  A
C289       Br297   1.942       .  S
C290       Br301   1.932       .  S
C291        C292   1.409       .  A
C291        C296   1.404       .  A
C292        C293   1.422       .  A
C292       Br303   1.933       .  S
C293        C294   1.447       .  A
C293       Br299   1.928       .  S
C294        C295   1.444       .  A
C295        C296   1.399       .  A
C295       Br304   1.936       .  S
C296       Br300   1.936       .  S
C305        C306   1.410       .  A
C305        C310   1.419       .  A
C306        C307   1.410       .  A
C306       Br318   1.930   1_545  S
C307        C308   1.412       .  A
C307       Br322   1.925       .  S
C308        C311   1.484       .  S
C308        C309   1.406       .  A
C309        C310   1.400       .  A
C309       Br317   1.936       .  S
C310       Br321   1.935       .  S
C311        C312   1.404       .  A
C311        C316   1.394       .  A
C312        C313   1.419       .  A
C312       Br323   1.935       .  S
C313        C314   1.446       .  A
C313       Br319   1.927       .  S
C314        C315   1.446       .  A
C315        C316   1.402       .  A
C315       Br324   1.923       .  S
C316       Br320   1.945       .  S
C325        C326   1.448       .  A
C325        C330   1.454       .  A
C326        C327   1.411       .  A
C326       Br338   1.944       .  S
C327        C328   1.405       .  A
C327       Br342   1.934   1_565  S
C328        C331   1.505   1_556  S
C328        C329   1.402       .  A
C329        C330   1.416       .  A
C329       Br337   1.935   1_556  S
C330       Br341   1.935       .  S
C331        C332   1.407       .  A
C331        C336   1.405   1_554  A
C332        C333   1.415       .  A
C332       Br343   1.938       .  S
C333        C334   1.444       .  A
C333       Br339   1.933       .  S
C334        C335   1.441       .  A
C335        C336   1.412   1_554  A
C335       Br344   1.938   1_565  S
C336       Br340   1.934       .  S
C345        C346   1.450       .  A
C345        C350   1.437       .  A
C346        C347   1.416       .  A
C346       Br358   1.929       .  S
C347        C348   1.404       .  A
C347       Br362   1.929   1_545  S
C348        C351   1.508       .  S
C348        C349   1.407       .  A
C349        C350   1.408       .  A
C349       Br357   1.930       .  S
C350       Br361   1.917       .  S
C351        C352   1.408       .  A
C351        C356   1.412       .  A
C352        C353   1.417       .  A
C352       Br363   1.936       .  S
C353        C354   1.437   1_545  A
C353       Br359   1.935       .  S
C354        C355   1.435       .  A
C355        C356   1.413   1_565  A
C355       Br364   1.918       .  S
C356       Br360   1.938   1_545  S
C365        C366   1.459       .  A
C365        C370   1.426       .  A
C366        C367   1.424       .  A
C366       Br378   1.945       .  S
C367        C368   1.403       .  A
C367       Br382   1.939       .  S
C368        C371   1.485       .  S
C368        C369   1.392       .  A
C369        C370   1.394       .  A
C369       Br377   1.932       .  S
C370       Br381   1.920       .  S
C371        C372   1.409       .  A
C371        C376   1.403       .  A
C372        C373   1.406       .  A
C372       Br383   1.934       .  S
C373        C374   1.420       .  A
C373       Br379   1.937       .  S
C374        C375   1.423       .  A
C375        C376   1.409       .  A
C375       Br384   1.934       .  S
C376       Br380   1.929       .  S
C385        C386   1.461       .  A
C385        C390   1.453       .  A
C386        C387   1.409       .  A
C386       Br398   1.948       .  S
C387        C388   1.394       .  A
C387       Br402   1.946       .  S
C388        C391   1.479       .  S
C388        C389   1.393       .  A
C389        C390   1.407       .  A
C389       Br397   1.937       .  S
C390       Br401   1.939       .  S
C391        C392   1.411       .  A
C391        C396   1.406       .  A
C392        C393   1.407       .  A
C392       Br403   1.929       .  S
C393        C394   1.407       .  A
C393       Br399   1.928       .  S
C394        C395   1.415       .  A
C395        C396   1.400       .  A
C395       Br404   1.932       .  S
C396       Br400   1.932       .  S
C405        C406   1.412       .  A
C405        C410   1.419       .  A
C406        C407   1.409       .  A
C406       Br418   1.929       .  S
C407        C408   1.410       .  A
C407       Br422   1.931       .  S
C408        C411   1.486       .  S
C408        C409   1.405       .  A
C409        C410   1.407       .  A
C409       Br417   1.930       .  S
C410       Br421   1.935       .  S
C411        C412   1.396       .  A
C411        C416   1.391       .  A
C412        C413   1.417       .  A
C412       Br423   1.936       .  S
C413        C414   1.455       .  A
C413       Br419   1.933       .  S
C414        C415   1.458       .  A
C415        C416   1.405       .  A
C415       Br424   1.938       .  S
C416       Br420   1.943       .  S
C425        C426   1.415       .  A
C425        C430   1.415       .  A
C426        C427   1.406       .  A
C426       Br438   1.933       .  S
C427        C428   1.408       .  A
C427       Br442   1.929       .  S
C428        C431   1.491       .  S
C428        C429   1.412       .  A
C429        C430   1.412       .  A
C429       Br437   1.932       .  S
C430       Br441   1.929       .  S
C431        C432   1.397       .  A
C431        C436   1.398       .  A
C432        C433   1.406       .  A
C432       Br443   1.936       .  S
C433        C434   1.452       .  A
C433       Br439   1.945       .  S
C434        C435   1.455       .  A
C435        C436   1.415       .  A
C435       Br444   1.936       .  S
C436       Br440   1.935       .  S
C445        C446   1.429       .  A
C445        C450   1.425       .  A
C446        C447   1.404       .  A
C446       Br458   1.945       .  S
C447        C448   1.404       .  A
C447       Br462   1.928       .  S
C448        C451   1.494       .  S
C448        C449   1.407       .  A
C449        C450   1.415       .  A
C449       Br457   1.930       .  S
C450       Br461   1.933       .  S
C451        C452   1.397       .  A
C451        C456   1.395       .  A
C452        C453   1.417       .  A
C452       Br463   1.940       .  S
C453        C454   1.456       .  A
C453       Br459   1.941       .  S
C454        C455   1.455       .  A
C455        C456   1.415       .  A
C455       Br464   1.925       .  S
C456       Br460   1.941       .  S
C465        C466   1.418       .  A
C465        C470   1.412       .  A
C466        C467   1.405       .  A
C466       Br478   1.934       .  S
C467        C468   1.406       .  A
C467       Br482   1.931       .  S
C468        C471   1.491       .  S
C468        C469   1.412       .  A
C469        C470   1.413       .  A
C469       Br477   1.928   1_655  S
C470       Br481   1.928   1_654  S
C471        C472   1.393       .  A
C471        C476   1.394       .  A
C472        C473   1.416       .  A
C472       Br483   1.958       .  S
C473        C474   1.458       .  A
C473       Br479   1.908       .  S
C474        C475   1.459       .  A
C475        C476   1.418       .  A
C475       Br484   1.936       .  S
C476       Br480   1.937   1_554  S
C485        C486   1.455       .  A
C485        C490   1.453       .  A
C486        C487   1.414       .  A
C486       Br498   1.929       .  S
C487        C488   1.396       .  A
C487       Br502   1.941       .  S
C488        C491   1.495       .  S
C488        C489   1.398       .  A
C489        C490   1.412       .  A
C489       Br497   1.937       .  S
C490       Br501   1.934       .  S
C491        C492   1.414       .  A
C491        C496   1.409       .  A
C492        C493   1.412       .  A
C492       Br503   1.929   1_565  S
C493        C494   1.409       .  A
C493       Br499   1.930   1_565  S
C494        C495   1.415       .  A
C495        C496   1.408       .  A
C495       Br504   1.931       .  S
C496       Br500   1.932       .  S
C505        C506   1.413       .  A
C505        C510   1.413   1_554  A
C506        C507   1.414       .  A
C506       Br518   1.930       .  S
C507        C508   1.412       .  A
C507       Br522   1.927       .  S
C508        C511   1.500       .  S
C508        C509   1.411       .  A
C509        C510   1.411   1_554  A
C509       Br517   1.929   1_564  S
C510       Br521   1.930   1_565  S
C511        C512   1.399       .  A
C511        C516   1.402       .  A
C512        C513   1.416       .  A
C512       Br523   1.942   1_565  S
C513        C514   1.453       .  A
C513       Br519   1.941   1_565  S
C514        C515   1.453       .  A
C515        C516   1.419       .  A
C515       Br524   1.951       .  S
C516       Br520   1.934       .  S
C525        C526   1.419       .  A
C525        C530   1.419       .  A
C526        C527   1.416       .  A
C526       Br538   1.930       .  S
C527        C528   1.412       .  A
C527       Br542   1.931       .  S
C528        C531   1.500       .  S
C528        C529   1.407       .  A
C529        C530   1.409       .  A
C529       Br537   1.928   1_556  S
C530       Br541   1.935   1_656  S
C531        C532   1.396   1_655  A
C531        C536   1.397       .  A
C532        C533   1.419       .  A
C532       Br543   1.940       .  S
C533        C534   1.459   1_455  A
C533       Br539   1.934       .  S
C534        C535   1.462       .  A
C535        C536   1.416       .  A
C535       Br544   1.949       .  S
C536       Br540   1.941       .  S
