geometry optimzed in LAMMPS
_audit_creation_date              2020-11-30 
_audit_creation_method            'lammps2cif' 
_symmetry_space_group_name_H-M    'P1' 
_symmetry_Int_Tables_number       1 
_symmetry_cell_setting            triclinic 
loop_ 
_symmetry_equiv_pos_as_xyz 
  x,y,z 
_cell_length_a                    34.72562641 
_cell_length_b                    33.84161860896497 
_cell_length_c                    63.568513612360164 
_cell_angle_alpha                 90.11098187114186 
_cell_angle_beta                  90.6796726291589 
_cell_angle_gamma                 88.73011682647645 
loop_ 
_atom_site_label 
_atom_site_type_symbol 
_atom_site_fract_x 
_atom_site_fract_y 
_atom_site_fract_z 
_atom_site_charge 
N1          N  0.41094248  0.26512328  0.40975549    -0.36200
N2          N  0.42745779  0.31959408  0.37502700    -0.56800
N3          N  0.44018205  0.25238570  0.34750370    -0.36200
N4          N  0.42854828  0.19813625  0.38354947    -0.56800
C5          C  0.41490907  0.29947113  0.42042521     0.27300
C6          C  0.41064813  0.23546443  0.42409711     0.27300
C7          C  0.45024608  0.28201462  0.33439789     0.27300
C8          C  0.45470179  0.21793969  0.33958505     0.27300
C9          C  0.41770622  0.34635631  0.38999709     0.36000
C10         C  0.43036846  0.33977273  0.35673718     0.36000
C11         C  0.40943604  0.17953351  0.39901510     0.36000
C12         C  0.43103833  0.17243770  0.36728025     0.36000
C13         C  0.41727287  0.29153694  0.44181799    -0.21500
C14         C  0.41477331  0.25118816  0.44411849    -0.21500
C15         C  0.46995040  0.26582882  0.31747396    -0.21500
C16         C  0.47311500  0.22569196  0.32086657    -0.21500
C17         C  0.41511013  0.38385828  0.38127038    -0.22600
C18         C  0.42333546  0.37974269  0.36029646    -0.22600
C19         C  0.39899930  0.14227678  0.39223878    -0.22600
C20         C  0.41367970  0.13736322  0.37241117    -0.22600
C21         C  0.41248634  0.33795203  0.41161778    -0.17900
C22         C  0.40370559  0.19507049  0.41954315    -0.17900
C23         C  0.44993783  0.17945171  0.34809700    -0.17900
C24         C  0.44256938  0.32324947  0.33728559    -0.17900
H25         H  0.41983547  0.31269781  0.45451457     0.15000
H26         H  0.41524795  0.23529881  0.45888058     0.15000
H27         H  0.48135781  0.28124316  0.30410376     0.15000
H28         H  0.48697383  0.20459647  0.31050259     0.15000
H29         H  0.40864692  0.41145956  0.38925216     0.13300
H30         H  0.42461753  0.40365449  0.34907044     0.13300
H31         H  0.38279905  0.12061869  0.40069202     0.13300
H32         H  0.41104989  0.11129545  0.36265364     0.13300
H33         H  0.40331125  0.26267381  0.39394425     0.26500
H34         H  0.42203921  0.25503931  0.36032061     0.26500
N35         N  0.18950418  0.25232018  0.41093381    -0.36200
N36         N  0.17302026  0.20255335  0.37519970    -0.56800
N37         N  0.17137659  0.27228816  0.34779189    -0.36200
N38         N  0.18410733  0.32250683  0.38429948    -0.56800
C39         C  0.18564090  0.21744648  0.42094038     0.27300
C40         C  0.18809236  0.28104821  0.42571132     0.27300
C41         C  0.15624435  0.24515201  0.33449675     0.27300
C42         C  0.16395624  0.30865595  0.33944947     0.27300
C43         C  0.17991676  0.17374122  0.38964673     0.36000
C44         C  0.16622239  0.18417798  0.35664101     0.36000
C45         C  0.19877344  0.33832361  0.40211700     0.36000
C46         C  0.18998260  0.34897629  0.36883125     0.36000
C47         C  0.18178063  0.22412636  0.44236278    -0.21500
C48         C  0.18262033  0.26431123  0.44531341    -0.21500
C49         C  0.13977792  0.26467195  0.31728773    -0.21500
C50         C  0.14411490  0.30455574  0.32056998    -0.21500
C51         C  0.17600296  0.13697381  0.38044789    -0.22600
C52         C  0.16669318  0.14351880  0.35971031    -0.22600
C53         C  0.21423606  0.37489588  0.39788952    -0.22600
C54         C  0.20829901  0.38179484  0.37682905    -0.22600
C55         C  0.18800039  0.17983954  0.41129024    -0.17900
C56         C  0.19655166  0.32115658  0.42232992    -0.17900
C57         C  0.17619551  0.34527075  0.34795885    -0.17900
C58         C  0.15776519  0.20327769  0.33714213    -0.17900
H59         H  0.17898473  0.20257948  0.45474056     0.15000
H60         H  0.18100587  0.27935503  0.46033109     0.15000
H61         H  0.12598083  0.25178601  0.30365369     0.15000
H62         H  0.13417236  0.32783343  0.31005002     0.15000
H63         H  0.17857814  0.10839726  0.38801550     0.13300
H64         H  0.16070543  0.12065768  0.34830123     0.13300
H65         H  0.22799639  0.39477449  0.40885639     0.13300
H66         H  0.21642420  0.40799101  0.36836389     0.13300
H67         H  0.19833733  0.25574396  0.39559177     0.26500
H68         H  0.18899872  0.26617746  0.36065755     0.26500
O69         O  0.36621935  0.46620099  0.48539320    -0.79800
O70         O  0.34670123  0.05956129  0.52312270    -0.79800
O71         O  0.32926518  0.05232881  0.47482350    -0.79800
O72         O  0.32461529  0.46548095  0.55361870    -0.79800
O73         O  0.30923555  0.10411028  0.49353120    -0.79900
O74         O  0.36824063  0.46381985  0.52887335    -0.79800
O75         O  0.31385505  0.04179713  0.55088186    -0.79800
O76         O  0.31939730  0.47400755  0.46296443    -0.79800
C77         C  0.35320582  0.46137624  0.46698288     1.09900
C78         C  0.33960544  0.06289528  0.54260477     1.09800
C79         C  0.32836755  0.09044527  0.47827717     1.09900
C80         C  0.35848076  0.45607461  0.54739859     1.09800
O81         O  0.30183318  0.41375333  0.52848658    -0.79800
O82         O  0.25098707  0.05667026  0.48470201    -0.79900
O83         O  0.24855132  0.46389483  0.48315948    -0.79800
O84         O  0.23803711  0.02527387  0.53368406    -0.79800
O85         O  0.26751784  0.07886557  0.52553292    -0.79800
O86         O  0.29647327  0.42035997  0.48674292    -0.79800
O87         O  0.25014195  0.45077953  0.53386744    -0.79700
O88         O  0.26520572  0.02451290  0.45558426    -0.79800
Co89       Co  0.33210192  0.44519116  0.50746734     1.51500
Co90       Co  0.30153391  0.05331730  0.50401253     1.51700
Co91       Co  0.28901203  0.00661249  0.48069335     1.51600
Co92       Co  0.28534286  0.99377355  0.54081967     1.51500
O93         O  0.30461808  0.99447859  0.51044652    -1.41700
C94         C  0.26770385  0.41789869  0.53540462     1.09800
C95         C  0.24721082  0.05255382  0.46445086     1.09900
C96         C  0.26183118  0.42862293  0.48147842     1.09900
C97         C  0.24032333  0.06238486  0.53480922     1.09800
N98         N  0.46165679  0.24179706  0.66166347    -0.36200
N99         N  0.43183128  0.18834637  0.63120749    -0.56800
N100        N  0.42003646  0.25526010  0.60077191    -0.36200
N101        N  0.44579584  0.30887434  0.63246824    -0.56800
C102        C  0.46256834  0.20864898  0.67367434     0.27300
C103        C  0.46807339  0.27296434  0.67444698     0.27300
C104        C  0.39995951  0.22642922  0.59120098     0.27300
C105        C  0.40848562  0.29035787  0.59208339     0.27300
C106        C  0.44338053  0.16095580  0.64567062     0.36000
C107        C  0.42042233  0.16837309  0.61389839     0.36000
C108        C  0.46912069  0.32530502  0.64687969     0.36000
C109        C  0.44708594  0.33225935  0.61534405     0.36000
C110        C  0.95671738  0.22591000  0.69618990    -0.21500
C111        C  0.95988859  0.26623647  0.69629987    -0.21500
C112        C  0.37626181  0.24310079  0.57572271    -0.21500
C113        C  0.38150913  0.28333151  0.57632747    -0.21500
C114        C  0.43839352  0.12334825  0.63759600    -0.22600
C115        C  0.42426285  0.12800304  0.61750903    -0.22600
C116        C  0.48564088  0.35896411  0.63881798    -0.22600
C117        C  0.47194179  0.36306848  0.61863474    -0.22600
C118        C  0.45683660  0.16933557  0.66637703    -0.17900
C119        C  0.47295145  0.31251618  0.66781636    -0.17900
C120        C  0.42275561  0.32813835  0.59778913    -0.17900
C121        C  0.40307876  0.18536693  0.59559176    -0.17900
H122        H  0.95845928  0.20777481  0.71006853     0.15000
H123        H  0.96319128  0.28431719  0.71023132     0.15000
H124        H  0.35676491  0.22790757  0.56522244     0.15000
H125        H  0.36667188  0.30481323  0.56639393     0.15000
H126        H  0.44367634  0.09532736  0.64538047     0.13300
H127        H  0.41668717  0.10418917  0.60696121     0.13300
H128        H  0.50514546  0.37872089  0.64676889     0.13300
H129        H  0.47847236  0.38662023  0.60783406     0.13300
H130        H  0.46081914  0.24318524  0.64547097     0.26500
H131        H  0.44265715  0.25051518  0.61131417     0.26500
N132        N  0.19994180  0.24257415  0.60504905    -0.36200
N133        N  0.18534013  0.18472290  0.63679838    -0.56800
N134        N  0.18065056  0.24810379  0.66836115    -0.36200
N135        N  0.19958561  0.30556521  0.63727601    -0.56800
C136        C  0.20886277  0.20838251  0.59481044     0.27300
C137        C  0.21760270  0.27203711  0.59486050     0.27300
C138        C  0.18212539  0.21551045  0.68068191     0.27300
C139        C  0.18642400  0.27986745  0.68093691     0.27300
C140        C  0.17773339  0.16339952  0.61932637     0.36000
C141        C  0.16800166  0.16633084  0.65275035     0.36000
C142        C  0.20420937  0.32771729  0.61983732     0.36000
C143        C  0.19099436  0.33096671  0.65314430     0.36000
C144        C  0.23223913  0.21647826  0.57787905    -0.21500
C145        C  0.23745905  0.25656202  0.57780561    -0.21500
C146        C  0.18934656  0.22662894  0.70133031    -0.21500
C147        C  0.19139452  0.26726364  0.70154783    -0.21500
C148        C  0.15473562  0.13183706  0.62401113    -0.22600
C149        C  0.14861846  0.13357835  0.64529678    -0.22600
C150        C  0.19962793  0.36745986  0.62475854    -0.22600
C151        C  0.19124220  0.36951352  0.64583746    -0.22600
C152        C  0.19466441  0.17049394  0.59978268    -0.17900
C153        C  0.21514061  0.31277437  0.59989295    -0.17900
C154        C  0.18457688  0.31989022  0.67433329    -0.17900
C155        C  0.17247673  0.17686175  0.67410945    -0.17900
H156        H  0.24465612  0.19573036  0.56675946     0.15000
H157        H  0.25439565  0.27243957  0.56655515     0.15000
H158        H  0.19147137  0.20757084  0.71496737     0.15000
H159        H  0.19583939  0.28528035  0.71538669     0.15000
H160        H  0.14428338  0.10948783  0.61330040     0.13300
H161        H  0.13238985  0.11271814  0.65430220     0.13300
H162        H  0.20247436  0.39239465  0.61429666     0.13300
H163        H  0.18641235  0.39633729  0.65481508     0.13300
H164        H  0.17985457  0.24628313  0.61694549     0.26500
H165        H  0.17088737  0.24903687  0.65285308     0.26500
O166        O  0.02781933  0.46052670  0.28200870    -0.79800
O167        O  0.09805881  0.49188490  0.21165450    -0.79800
O168        O  0.51603746  0.45510763  0.23506534    -0.79800
O169        O  0.15234174  0.47987413  0.27580863    -0.79800
O170        O  0.01901368  0.49942922  0.21026436    -0.79900
O171        O  0.09927919  0.48994281  0.29552434    -0.79800
O172        O  0.11109212  0.45577108  0.24018073    -0.79800
O173        O  0.46741028  0.46718205  0.26808003    -0.79800
C174        C  0.49100931  0.44592999  0.27910341     1.09900
C175        C  0.11426511  0.46164003  0.22035046     1.09800
C176        C  0.50831085  0.46334844  0.21603159     1.09900
C177        C  0.13422445  0.47539460  0.29308672     1.09800
O178        O  0.06691765  0.07394801  0.28337755    -0.79800
O179        O  0.02175991  0.06990239  0.22248110    -0.79900
O180        O  0.50200578  0.04277993  0.27962797    -0.79800
O181        O  0.14620534  0.03013783  0.23623240    -0.79800
O182        O  0.09990023  0.06809658  0.22251635    -0.79800
O183        O  0.02395040  0.02649507  0.30680169    -0.79800
O184        O  0.12402151  0.05792077  0.27299624    -0.79700
O185        O  0.48365518  0.02910990  0.23726448    -0.79800
Co186      Co  0.04987525  0.51731537  0.28151876     1.51500
Co187      Co  0.06064079  0.53476223  0.22059103     1.51700
Co188      Co  0.50822653  0.49789668  0.25614045     1.51600
Co189      Co  0.11338028  0.50331354  0.25898271     1.51500
O190        O  0.06200866  0.51972338  0.25076395    -1.41700
C191        C  0.10146377  0.08272703  0.28147981     1.09800
C192        C  0.49376013  0.05879946  0.22619433     1.09900
C193        C  0.50716105  0.04366977  0.29987704     1.09900
C194        C  0.13481989  0.05734167  0.22356083     1.09800
O195        O  0.45961099  0.23945790  0.99087275    -0.79800
O196        O  0.10418294  0.16152557  0.01984355    -0.79800
O197        O  0.08832382  0.23675086  0.96132512    -0.79800
O198        O  0.01978444  0.20282507  0.04580683    -0.79800
O199        O  0.10106522  0.18238371  0.97827536    -0.79900
O200        O  0.50300346  0.18887555  0.01507361    -0.79800
O201        O  0.09987733  0.19276297  0.04975112    -0.79800
O202        O  0.01146569  0.22336598  0.97066723    -0.79800
C203        C  0.97412307  0.22373548  0.97300660     1.09900
C204        C  0.11149102  0.16271122  0.03919692     1.09800
C205        C  0.10386146  0.20264911  0.96173971     1.09900
C206        C  0.50007826  0.18494293  0.03486945     1.09800
O207        O  0.48011190  0.26346190  0.02895982    -0.79800
O208        O  0.14167197  0.25317783  0.98862553    -0.79900
O209        O  0.03595276  0.29659751  0.96085582    -0.79800
O210        O  0.10667344  0.27731353  0.04153063    -0.79800
O211        O  0.14809152  0.23315584  0.02958007    -0.79800
O212        O  0.50446904  0.30206112  0.99237156    -0.79800
O213        O  0.03093150  0.28853480  0.04161270    -0.79700
O214        O  0.09753871  0.30106296  0.98819103    -0.79800
Co215      Co  0.00933442  0.24095829  0.00240273     1.51500
Co216      Co  0.11949144  0.20859333  0.00438933     1.51700
Co217      Co  0.05455209  0.26285744  0.98243583     1.51600
Co218      Co  0.06423038  0.24030146  0.04244067     1.51500
O219        O  0.06655100  0.23563443  0.01019803    -1.41700
C220        C  0.49324419  0.28717582  0.04232567     1.09800
C221        C  0.13230027  0.28909984  0.98529742     1.09900
C222        C  0.01008651  0.31251506  0.97206811     1.09900
C223        C  0.14071383  0.26453463  0.04015267     1.09800
N224        N  0.31117075  0.39364978  0.92964669    -0.36200
N225        N  0.25506539  0.37633662  0.89529950    -0.56800
N226        N  0.31202009  0.39385528  0.86393285    -0.36200
N227        N  0.36806333  0.40565937  0.89716655    -0.56800
C228        C  0.28329808  0.37638863  0.94088534     0.27300
C229        C  0.34433469  0.39108070  0.94122986     0.27300
C230        C  0.28338881  0.37978979  0.85163355     0.27300
C231        C  0.34516464  0.39097217  0.85291262     0.27300
C232        C  0.23224130  0.37306173  0.91241590     0.36000
C233        C  0.23136607  0.37937395  0.87809403     0.36000
C234        C  0.38612633  0.41950235  0.91451289     0.36000
C235        C  0.38761316  0.41889116  0.88047969     0.36000
C236        C  0.29822098  0.36630075  0.96057476    -0.21500
C237        C  0.33685526  0.37364823  0.96035880    -0.21500
C238        C  0.29844401  0.36744068  0.83254594    -0.21500
C239        C  0.33752195  0.37426070  0.83339627    -0.21500
C240        C  0.19399289  0.37278426  0.90586391    -0.22600
C241        C  0.19339779  0.37804302  0.88445400    -0.22600
C242        C  0.41735396  0.44166264  0.90885030    -0.22600
C243        C  0.41797344  0.44183813  0.88724330    -0.22600
C244        C  0.24524823  0.36808706  0.93372592    -0.17900
C245        C  0.38108983  0.40346817  0.93469590    -0.17900
C246        C  0.38108442  0.40632096  0.85955123    -0.17900
C247        C  0.24369938  0.38110572  0.85670338    -0.17900
H248        H  0.28343101  0.35345533  0.97367195     0.15000
H249        H  0.35684877  0.36609542  0.97287673     0.15000
H250        H  0.28272520  0.35547519  0.81926871     0.15000
H251        H  0.35772274  0.36860794  0.82085370     0.15000
H252        H  0.16865697  0.36960651  0.91534237     0.13300
H253        H  0.16754405  0.38007477  0.87487789     0.13300
H254        H  0.43855180  0.45448607  0.91928208     0.13300
H255        H  0.43939691  0.45566668  0.87765437     0.13300
H256        H  0.30737944  0.40705908  0.91506586     0.26500
H257        H  0.30800702  0.40949200  0.87785406     0.26500
N258        N  0.30116374  0.16931085  0.90174328    -0.36200
N259        N  0.24632272  0.15227310  0.86949588    -0.56800
N260        N  0.30603069  0.11994174  0.84249948    -0.36200
N261        N  0.36214474  0.13608769  0.87570949    -0.56800
C262        C  0.26828000  0.17117752  0.91300445     0.27300
C263        C  0.33095301  0.16598501  0.91551183     0.27300
C264        C  0.27416210  0.10568607  0.83296898     0.28500
C265        C  0.33655133  0.09760595  0.83619902     0.27300
C266        C  0.22292878  0.17234844  0.88275395     0.36000
C267        C  0.22662939  0.14890432  0.85122274     0.36000
C268        C  0.38281614  0.15767631  0.88951695     0.36000
C269        C  0.38507953  0.12919586  0.85903592     0.36000
C270        C  0.27741019  0.16934097  0.93429320    -0.21500
C271        C  0.31700385  0.16595393  0.93587192    -0.21500
C272        C  0.28460128  0.07421017  0.82008134    -0.21500
C273        C  0.32410845  0.06909132  0.82211873    -0.21500
C274        C  0.18823664  0.18167313  0.87279626    -0.22600
C275        C  0.19113248  0.16819956  0.85261546    -0.22600
C276        C  0.41880488  0.16520503  0.88140599    -0.22600
C277        C  0.42041702  0.14665913  0.86214012    -0.22600
C278        C  0.23072921  0.17711068  0.90438598    -0.17900
C279        C  0.37026397  0.16752898  0.90996591    -0.17900
C280        C  0.37533187  0.10439014  0.84201305    -0.17900
C281        C  0.23635327  0.12156419  0.83532736    -0.17900
H282        H  0.25776454  0.17116690  0.94736069     0.15000
H283        H  0.33367830  0.16457539  0.95035840     0.15000
H284        H  0.26576988  0.05684592  0.81022638     0.15000
H285        H  0.34164456  0.04705345  0.81410853     0.15000
H286        H  0.16237451  0.19428160  0.87951382     0.13300
H287        H  0.16817760  0.16913254  0.84094726     0.13300
H288        H  0.44176383  0.18153233  0.88879575     0.13300
H289        H  0.44479452  0.14582679  0.85167976     0.13300
H290        H  0.30378769  0.17512353  0.88576584     0.26500
H291        H  0.30741097  0.14585315  0.85129157     0.26500
O292        O  0.09390701  0.40884508  0.74657955    -0.79800
O293        O  0.07445489  0.07892543  0.78060278    -0.79800
O294        O  0.10161390  0.02071001  0.71376772    -0.79800
O295        O  0.12149235  0.45717609  0.79404180    -0.79800
O296        O  0.09791924  0.05624616  0.74293832    -0.79900
O297        O  0.08959389  0.40317420  0.79076323    -0.79800
O298        O  0.11621684  0.03247985  0.78600156    -0.79800
O299        O  0.12517770  0.46374271  0.74113704    -0.79800
C300        C  0.12171069  0.42673673  0.73814649     1.09900
C301        C  0.10800729  0.06830382  0.78678806     1.09800
C302        C  0.10930006  0.05232457  0.72378208     1.09900
C303        C  0.11978394  0.42078943  0.79704587     1.09800
O304        O  0.00868914  0.43106073  0.78629864    -0.79800
O305        O  0.02594999  0.08608384  0.74534174    -0.79900
O306        O  0.05292079  0.45376345  0.72093891    -0.79800
O307        O  0.03617821  0.03641124  0.80518961    -0.79800
O308        O  0.00098123  0.03766614  0.77621835    -0.79800
O309        O  0.01347023  0.43413887  0.74506270    -0.79800
O310        O  0.04358372  0.45237495  0.81276036    -0.79700
O311        O  0.02909127  0.02964936  0.72761267    -0.79800
Co312      Co  0.05172719  0.42319719  0.76727669     1.51500
Co313      Co  0.04811995  0.04198329  0.75944413     1.51700
Co314      Co  0.07666753  0.49672617  0.73834701     1.51600
Co315      Co  0.07778567  0.49276440  0.79842380     1.51500
O316        O  0.06161091  0.48313951  0.76835638    -1.41700
C317        C  0.01222966  0.43830041  0.80553435     1.09800
C318        C  0.01768307  0.06638581  0.72895888     1.09900
C319        C  0.02470541  0.43311421  0.72643403     1.09900
C320        C  0.00387219  0.04333954  0.79585336     1.09800
N321        N  0.31333414  0.10918166  0.15728943    -0.36200
N322        N  0.25491195  0.11239629  0.12534613    -0.56800
N323        N  0.31191031  0.12107921  0.09289294    -0.36200
N324        N  0.37154409  0.11442241  0.12542743    -0.56800
C325        C  0.28284965  0.09200760  0.16586888     0.27300
C326        C  0.34491818  0.09139868  0.16551690     0.27300
C327        C  0.28095402  0.10798477  0.08183290     0.27300
C328        C  0.34419789  0.11224610  0.08188423     0.27300
C329        C  0.23564593  0.12280920  0.14292576     0.36000
C330        C  0.23436727  0.12683364  0.10887433     0.36000
C331        C  0.38994017  0.12451911  0.14350144     0.36000
C332        C  0.38992669  0.13201513  0.10947876     0.36000
C333        C  0.29487464  0.06126506  0.17891017    -0.21500
C334        C  0.33459625  0.06043067  0.17839084    -0.21500
C335        C  0.29407645  0.08966118  0.06361032    -0.21500
C336        C  0.33383188  0.09299673  0.06347701    -0.21500
C337        C  0.20332230  0.14550695  0.13777851    -0.22600
C338        C  0.20266042  0.14840186  0.11614287    -0.22600
C339        C  0.41924101  0.15023796  0.13914919    -0.22600
C340        C  0.41910225  0.15514799  0.11756585    -0.22600
C341        C  0.24532119  0.10675562  0.16283961    -0.17900
C342        C  0.38154151  0.10708720  0.16319656    -0.17900
C343        C  0.38205445  0.12375184  0.08794265    -0.17900
C344        C  0.24173312  0.11498295  0.08784682    -0.17900
H345        H  0.27708719  0.04231151  0.18820476     0.15000
H346        H  0.35361386  0.04063468  0.18719825     0.15000
H347        H  0.27707729  0.07509487  0.05165907     0.15000
H348        H  0.35293128  0.08208583  0.05134621     0.15000
H349        H  0.18186162  0.15741285  0.14839844     0.13300
H350        H  0.18031224  0.16307456  0.10691881     0.13300
H351        H  0.43899189  0.16347298  0.15026203     0.13300
H352        H  0.43896609  0.17279534  0.10887700     0.13300
H353        H  0.31261598  0.13530369  0.14852311     0.26500
H354        H  0.31091859  0.13878489  0.10633220     0.26500
N355        N  0.31207961  0.34964809  0.10570306    -0.36200
N356        N  0.25155836  0.36675541  0.13527076    -0.56800
N357        N  0.30873596  0.38748424  0.16740417    -0.36200
N358        N  0.36868546  0.37165042  0.13664744    -0.56800
C359        C  0.28107892  0.34455524  0.09311182     0.27300
C360        C  0.34329667  0.35123148  0.09324080     0.27300
C361        C  0.27656544  0.40592091  0.17462483     0.27300
C362        C  0.33939661  0.40597204  0.17591169     0.27300
C363        C  0.23098507  0.34645562  0.12081980     0.36000
C364        C  0.22912807  0.37086685  0.15238171     0.36000
C365        C  0.39192488  0.35526310  0.12198303     0.36000
C366        C  0.38899080  0.37168411  0.15487209     0.36000
C367        C  0.29264371  0.34245420  0.07231186    -0.21500
C368        C  0.33192281  0.34674173  0.07239028    -0.21500
C369        C  0.28684616  0.43648364  0.18800037    -0.21500
C370        C  0.32663797  0.43669499  0.18868594    -0.21500
C371        C  0.19517941  0.33771650  0.12877502    -0.22600
C372        C  0.19393426  0.35336928  0.14876722    -0.22600
C373        C  0.42731220  0.34486343  0.13093655    -0.22600
C374        C  0.42524843  0.35475096  0.15183762    -0.22600
C375        C  0.24331848  0.33807414  0.10010209    -0.17900
C376        C  0.38193470  0.35106462  0.10047922    -0.17900
C377        C  0.37828334  0.39462216  0.17254748    -0.17900
C378        C  0.23846118  0.39426514  0.17008687    -0.17900
H379        H  0.27482269  0.33724735  0.05854143     0.15000
H380        H  0.35013184  0.34501634  0.05871186     0.15000
H381        H  0.26769089  0.45661114  0.19629975     0.15000
H382        H  0.34410882  0.45714323  0.19751914     0.15000
H383        H  0.17210961  0.32244075  0.12083861     0.13300
H384        H  0.16967183  0.35269349  0.15928566     0.13300
H385        H  0.45227578  0.33209792  0.12323793     0.13300
H386        H  0.44851754  0.35195967  0.16325880     0.13300
H387        H  0.31234582  0.34631422  0.12192399     0.26500
H388        H  0.30975066  0.36143028  0.15862702     0.26500
C389        C  0.13929646  0.08130401  0.82000820    -0.11900
C390        C  0.13561606  0.09225302  0.79879576     0.05100
C391        C  0.16688994  0.11137692  0.78925549    -0.07200
C392        C  0.20005975  0.11987784  0.80119354    -0.07900
C393        C  0.20386178  0.10734947  0.82209877    -0.02500
C394        C  0.17326295  0.08721361  0.83138385     0.04300
N395        N  0.17673870  0.07125685  0.85215969     0.66800
H396        H  0.11682327  0.06445149  0.82728604     0.15700
H397        H  0.22324447  0.13577113  0.79400816     0.15400
N398        N  0.16676039  0.12054000  0.76735186     0.74500
O399        O  0.16099448  0.08945568  0.86723232    -0.38900
O400        O  0.18530611  0.03505296  0.85430373    -0.38900
O401        O  0.16491352  0.15641860  0.76196937    -0.39600
O402        O  0.18168318  0.09575122  0.75485060    -0.39600
C403        C  0.41272297  0.09621918  0.80909705    -0.11900
C404        C  0.40708595  0.08512158  0.82991972     0.05100
C405        C  0.43293153  0.05764064  0.83941076    -0.07200
C406        C  0.46477391  0.04277374  0.82814381    -0.07900
C407        C  0.47048352  0.05379580  0.80706793    -0.02500
C408        C  0.44372301  0.08073810  0.79762840     0.04300
N409        N  0.44725133  0.09293753  0.77634204     0.66800
H410        H  0.39303822  0.11743829  0.80171337     0.15700
H411        H  0.48437283  0.02165183  0.83565747     0.15400
N412        N  0.42645223  0.04419794  0.86034526     0.74500
O413        O  0.42482719  0.07821636  0.76284862    -0.38900
O414        O  0.46205331  0.12589169  0.77262553    -0.38900
O415        O  0.39575054  0.02659412  0.86439364    -0.39600
O416        O  0.44687935  0.05708516  0.87528075    -0.39600
C417        C  0.18332458  0.36033184  0.83640472    -0.11900
C418        C  0.21452268  0.38607503  0.83888680     0.05100
C419        C  0.21680305  0.41789053  0.82458778    -0.07200
C420        C  0.18735906  0.42490234  0.80977295    -0.07900
C421        C  0.15358294  0.40247719  0.80899813    -0.02500
C422        C  0.15257961  0.36865715  0.82208839     0.04300
N423        N  0.12014941  0.34352309  0.82206207     0.66800
H424        H  0.18177497  0.33457312  0.84642941     0.15700
H425        H  0.19009716  0.45033013  0.79959435     0.15400
N426        N  0.24764469  0.44521320  0.82554314     0.74500
O427        O  0.12212269  0.31156300  0.81183681    -0.38900
O428        O  0.09641793  0.34664292  0.83688618    -0.38900
O429        O  0.27276202  0.44400128  0.81135476    -0.39600
O430        O  0.24328092  0.47658706  0.83607777    -0.39600
C431        C  0.40812699  0.43477180  0.82671000    -0.11900
C432        C  0.41324688  0.41038203  0.84426007     0.05100
C433        C  0.44997123  0.39298620  0.84820127    -0.07200
C434        C  0.48167315  0.40369308  0.83597805    -0.07900
C435        C  0.47670367  0.42848648  0.81837313    -0.02500
C436        C  0.43873852  0.44229202  0.81316984     0.04300
N437        N  0.43003757  0.46279250  0.79395830     0.66800
H438        H  0.37984252  0.44751302  0.82326756     0.15700
H439        H  0.01219384  0.39287403  0.84086956     0.15400
N440        N  0.45487291  0.36350362  0.86418815     0.74500
O441        O  0.42918189  0.44310037  0.77709415    -0.38900
O442        O  0.41084825  0.49486072  0.79472311    -0.38900
O443        O  0.43541560  0.33244685  0.86332591    -0.39600
O444        O  0.47515120  0.37038284  0.88031963    -0.39600
C445        C  0.13772876  0.11802343  0.06811950    -0.11900
C446        C  0.14192594  0.13541420  0.04823985     0.05100
C447        C  0.17886600  0.13289406  0.03900430    -0.07200
C448        C  0.21142816  0.12387138  0.05150150    -0.07900
C449        C  0.20792692  0.11201201  0.07250059    -0.02500
C450        C  0.17026770  0.10280804  0.07935131     0.04300
N451        N  0.16508967  0.07921829  0.09785197     0.66800
H452        H  0.10931610  0.11643506  0.07486883     0.15700
H453        H  0.23927623  0.12952752  0.04491031     0.15400
N454        N  0.18456616  0.14038332  0.01718834     0.74500
O455        O  0.13686724  0.08573739  0.10979680    -0.38900
O456        O  0.18836436  0.05102472  0.10203050    -0.38900
O457        O  0.19218805  0.17486119  0.01128797    -0.39600
O458        O  0.19539481  0.11163183  0.00590825    -0.39600
C459        C  0.40243781  0.15089643  0.05299739    -0.11900
C460        C  0.41257279  0.13014369  0.07148227     0.05100
C461        C  0.45216058  0.11989886  0.07466785    -0.07200
C462        C  0.48030814  0.13535234  0.06139478    -0.07900
C463        C  0.47020893  0.15922296  0.04408571    -0.02500
C464        C  0.43049497  0.16509218  0.03928655     0.04300
N465        N  0.41787488  0.19068667  0.02262918     0.66800
H466        H  0.37259728  0.15933829  0.05002148     0.15700
H467        H  0.51048793  0.12976798  0.06509995     0.15400
N468        N  0.46450030  0.09329307  0.09098031     0.74500
O469        O  0.40512588  0.17552650  0.00586330    -0.38900
O470        O  0.90834820  0.22979048  0.02777106    -0.38900
O471        O  0.46633712  0.05683888  0.08682628    -0.39600
O472        O  0.48454362  0.10616529  0.10609362    -0.39600
C473        C  0.16811287  0.32543461  0.05673663    -0.11900
C474        C  0.17036468  0.28425083  0.05340647     0.05100
C475        C  0.19753110  0.26200901  0.06526192    -0.07200
C476        C  0.21936172  0.27963553  0.08111573    -0.07900
C477        C  0.21624640  0.32020066  0.08480667    -0.02500
C478        C  0.19163275  0.34355379  0.07195914     0.04300
N479        N  0.19227029  0.38566317  0.07339655     0.66800
H480        H  0.14813530  0.34350609  0.04748729     0.15700
H481        H  0.23950277  0.26165525  0.09034021     0.15400
N482        N  0.20220614  0.22089016  0.06201245     0.74500
O483        O  0.21556231  0.40420128  0.06219520    -0.38900
O484        O  0.17688369  0.40289832  0.08888490    -0.38900
O485        O  0.22679988  0.20810568  0.04909273    -0.39600
O486        O  0.18032892  0.19762725  0.07127842    -0.39600
C487        C  0.45650548  0.34500772  0.05668617    -0.11900
C488        C  0.46747184  0.30500909  0.05811873     0.05100
C489        C  0.45145068  0.28165433  0.07401840    -0.07200
C490        C  0.42340202  0.29754677  0.08714778    -0.07900
C491        C  0.41216457  0.33715219  0.08576428    -0.02500
C492        C  0.42920749  0.36139922  0.07054857     0.04300
N493        N  0.41927706  0.40242115  0.06894036     0.66800
H494        H  0.46874258  0.36337780  0.04464105     0.15700
H495        H  0.41069007  0.27883359  0.09891565     0.15400
N496        N  0.96380394  0.24145373  0.07668180     0.74500
O497        O  0.39748708  0.41398427  0.05405779    -0.38900
O498        O  0.44038638  0.42712031  0.07812243    -0.38900
O499        O  0.99209795  0.23366840  0.08872536    -0.39600
O500        O  0.93768314  0.21642537  0.07489283    -0.39600
C501        C  0.18500837  0.37058794  0.95548201    -0.11900
C502        C  0.21834832  0.34967785  0.94909517     0.05100
C503        C  0.22585001  0.31160799  0.95768306    -0.07200
C504        C  0.19858073  0.29480404  0.97087374    -0.07900
C505        C  0.16285347  0.31378441  0.97538525    -0.02500
C506        C  0.15709328  0.35296063  0.96812402     0.04300
N507        N  0.12304272  0.37530996  0.97296760     0.66800
H508        H  0.17988842  0.40052192  0.94992388     0.15700
H509        H  0.20487895  0.26525315  0.97666202     0.15400
N510        N  0.26097013  0.28950731  0.95349561     0.74500
O511        O  0.12458416  0.40081708  0.98744210    -0.38900
O512        O  0.09671409  0.37839607  0.95918316    -0.38900
O513        O  0.27870660  0.27201780  0.96835987    -0.39600
O514        O  0.27545387  0.28875165  0.93537322    -0.39600
C515        C  0.45828115  0.36995946  0.97546990    -0.11900
C516        C  0.47914616  0.34224059  0.96338516     0.05100
C517        C  0.46951275  0.33812446  0.94180518    -0.07200
C518        C  0.43843276  0.35946203  0.93324675    -0.07900
C519        C  0.41669668  0.38646644  0.94523802    -0.02500
C520        C  0.42804240  0.39303721  0.96645263     0.04300
N521        N  0.41110876  0.42423533  0.97867229     0.66800
H522        H  0.46587717  0.37417947  0.99189150     0.15700
H523        H  0.43030802  0.35361699  0.91703263     0.15400
N524        N  0.99204780  0.31024321  0.92717020     0.74500
O525        O  0.42644089  0.45767257  0.97824350    -0.38900
O526        O  0.39074870  0.41569748  0.99426540    -0.38900
O527        O  0.97597944  0.27793538  0.92322291    -0.39600
O528        O  0.01770510  0.32211082  0.91495146    -0.39600
C529        C  0.18411821  0.15157621  0.93023820    -0.11900
C530        C  0.19738736  0.18366150  0.91861780     0.05100
C531        C  0.17650815  0.21984568  0.91927252    -0.07200
C532        C  0.14475377  0.22388621  0.93239787    -0.07900
C533        C  0.13256283  0.19261945  0.94514161    -0.02500
C534        C  0.15191862  0.15554899  0.94331359     0.04300
N535        N  0.13866491  0.12123632  0.95377014     0.66800
H536        H  0.19876531  0.12305439  0.92900187     0.15700
H537        H  0.13048213  0.25265062  0.93308964     0.15400
N538        N  0.18688707  0.25298955  0.90677759     0.74500
O539        O  0.12146862  0.09541592  0.94309392    -0.38900
O540        O  0.15439255  0.11114709  0.97093435    -0.38900
O541        O  0.16519139  0.26347534  0.89163684    -0.39600
O542        O  0.20873673  0.27825166  0.91476134    -0.39600
C543        C  0.39040864  0.21861698  0.93554986    -0.11900
C544        C  0.39835972  0.18230849  0.92591140     0.05100
C545        C  0.43136002  0.16019881  0.93236217    -0.07200
C546        C  0.45749959  0.17646341  0.94697986    -0.07900
C547        C  0.44875462  0.21254748  0.95708573    -0.02500
C548        C  0.41347405  0.23234917  0.95195866     0.04300
N549        N  0.90180960  0.26448132  0.96202810     0.66800
H550        H  0.36441638  0.23522661  0.93129185     0.15700
H551        H  0.48305828  0.15956613  0.95162565     0.15400
N552        N  0.43631128  0.11996142  0.92583312     0.74500
O553        O  0.90174185  0.29550913  0.95115128    -0.38900
O554        O  0.88048493  0.26352714  0.97794743    -0.38900
O555        O  0.46157489  0.11067008  0.91251018    -0.39600
O556        O  0.41239413  0.09461014  0.93147391    -0.39600
C557        C  0.44992306  0.42222857  0.21606778    -0.11900
C558        C  0.47767475  0.44211166  0.20441134     0.05100
C559        C  0.47108717  0.44747839  0.18253927    -0.07200
C560        C  0.43708537  0.43437710  0.17327342    -0.07900
C561        C  0.41010149  0.41333727  0.18472086    -0.02500
C562        C  0.41653519  0.40763801  0.20647756     0.04300
N563        N  0.39000247  0.38689894  0.21913783     0.66800
H564        H  0.45361932  0.41861120  0.23290494     0.15700
H565        H  0.43264807  0.43879318  0.15651532     0.15400
N566        N  0.99405122  0.47574561  0.17149101     0.74500
O567        O  0.36620478  0.40662162  0.23000214    -0.38900
O568        O  0.39853652  0.35195551  0.22462256    -0.38900
O569        O  0.02294515  0.45852601  0.16344484    -0.39600
O570        O  0.98017728  0.50623898  0.16256992    -0.39600
C571        C  0.19863494  0.39395444  0.20280988    -0.11900
C572        C  0.20619189  0.41011854  0.18304116     0.05100
C573        C  0.18131655  0.43960373  0.17490378    -0.07200
C574        C  0.14952359  0.45252443  0.18654268    -0.07900
C575        C  0.14258877  0.43848652  0.20707997    -0.02500
C576        C  0.16727920  0.40779734  0.21487028     0.04300
N577        N  0.16090845  0.38965743  0.23470726     0.66800
H578        H  0.21720176  0.37040447  0.20891795     0.15700
H579        H  0.13120958  0.47513343  0.17963983     0.15400
N580        N  0.18927311  0.45804609  0.15522361     0.74500
O581        O  0.14541172  0.35628853  0.23498740    -0.38900
O582        O  0.18099942  0.40006045  0.25032651    -0.38900
O583        O  0.17453048  0.44480236  0.13847543    -0.39600
O584        O  0.24360639  0.98324408  0.16808915    -0.39600
C585        C  0.42928306  0.08621766  0.21693661    -0.11900
C586        C  0.46672911  0.07744352  0.21101485     0.05100
C587        C  0.47731142  0.08439441  0.18998423    -0.07200
C588        C  0.44934952  0.09362610  0.17481078    -0.07900
C589        C  0.41120589  0.10175687  0.18042001    -0.02500
C590        C  0.40223641  0.10079387  0.20227168     0.04300
N591        N  0.36615534  0.11412133  0.21030675     0.66800
H592        H  0.42115553  0.08273652  0.23320724     0.15700
H593        H  0.45792305  0.09378219  0.15850129     0.15400
N594        N  0.99768681  0.04541170  0.17834910     0.74500
O595        O  0.34797531  0.09013933  0.22138957    -0.38900
O596        O  0.36136076  0.15062423  0.21373882    -0.38900
O597        O  0.02714586  0.62535948  0.18266701    -0.39600
O598        O  0.99130076  0.01045256  0.17257753    -0.39600
C599        C  0.19586640  0.08885691  0.21523933    -0.11900
C600        C  0.16120673  0.07368164  0.20824443     0.05100
C601        C  0.15266775  0.07326411  0.18647545    -0.07200
C602        C  0.18029232  0.08442022  0.17213986    -0.07900
C603        C  0.21548120  0.09943904  0.17894255    -0.02500
C604        C  0.22236270  0.10325050  0.20093562     0.04300
N605        N  0.25596674  0.12111199  0.20934766     0.66800
H606        H  0.20199677  0.09046874  0.23198373     0.15700
H607        H  0.17402559  0.08085499  0.15551793     0.15400
N608        N  0.11561549  0.06340301  0.17847879     0.74500
O609        O  0.25706386  0.15833441  0.20989846    -0.38900
O610        O  0.27554430  0.10168585  0.22273199    -0.38900
O611        O  0.09305954  0.09168934  0.17358567    -0.39600
O612        O  0.10299533  0.53930564  0.17390564    -0.39600
C613        C  0.13023790  0.15455245  0.70250353    -0.11900
C614        C  0.16226132  0.14700682  0.69011499     0.05100
C615        C  0.18088760  0.10964164  0.69118945    -0.07200
C616        C  0.16368458  0.07860832  0.70219564    -0.07900
C617        C  0.12990181  0.08562521  0.71382681    -0.02500
C618        C  0.11491367  0.12508005  0.71496221     0.04300
N619        N  0.08272032  0.13604094  0.72762173     0.66800
H620        H  0.11628994  0.18353711  0.70211830     0.15700
H621        H  0.17698065  0.04935433  0.70198359     0.15400
N622        N  0.21787998  0.10383532  0.68187725     0.74500
O623        O  0.08916834  0.14716801  0.74625434    -0.38900
O624        O  0.05260688  0.14904466  0.71847388    -0.38900
O625        O  0.24650449  0.12114834  0.68973523    -0.39600
O626        O  0.22045566  0.08893430  0.66374159    -0.39600
C627        C  0.19509443  0.36424361  0.70622074    -0.11900
C628        C  0.17126762  0.35093845  0.68973569     0.05100
C629        C  0.13345359  0.36642953  0.68817381    -0.07200
C630        C  0.12002235  0.39411566  0.70297645    -0.07900
C631        C  0.14238909  0.40526883  0.72061253    -0.02500
C632        C  0.18086857  0.39060015  0.72178955     0.04300
N633        N  0.20559904  0.40070119  0.73893282     0.66800
H634        H  0.22444478  0.35289821  0.70748825     0.15700
H635        H  0.09070905  0.40480247  0.70129989     0.15400
N636        N  0.10729157  0.35151312  0.67264919     0.74500
O637        O  0.21013495  0.37643322  0.75384704    -0.38900
O638        O  0.23100195  0.42613168  0.73599005    -0.38900
O639        O  0.09376697  0.31749717  0.67491454    -0.39600
O640        O  0.10372529  0.36858502  0.65508801    -0.39600
C641        C  0.99540877  0.11861400  0.67741006    -0.11900
C642        C  0.46694384  0.13534279  0.68085634     0.05100
C643        C  0.44735490  0.12873086  0.69984552    -0.07200
C644        C  0.46256937  0.10158657  0.71455412    -0.07900
C645        C  0.99551854  0.08614614  0.71159065    -0.02500
C646        C  0.01049908  0.08957044  0.69111463     0.04300
N647        N  0.04137585  0.06465407  0.68396802     0.66800
H648        H  0.00952574  0.12331408  0.66253592     0.15700
H649        H  0.44942021  0.09997966  0.72974887     0.15400
N650        N  0.41154984  0.14845538  0.70428897     0.74500
O651        O  0.03321732  0.03157128  0.67610292    -0.38900
O652        O  0.07261937  0.08018769  0.67892927    -0.38900
O653        O  0.38080389  0.13156310  0.69913638    -0.39600
O654        O  0.41037686  0.17455287  0.71848248    -0.39600
C655        C  0.01491629  0.33730715  0.69733516    -0.11900
C656        C  0.48610266  0.34200412  0.68323406     0.05100
C657        C  0.46295122  0.37504562  0.68872009    -0.07200
C658        C  0.47813605  0.40430187  0.70185687    -0.07900
C659        C  0.00942040  0.40278667  0.71246190    -0.02500
C660        C  0.02577094  0.36414419  0.71266608     0.04300
N661        N  0.04846046  0.34957608  0.72999203     0.66800
H662        H  0.02911486  0.30849530  0.69672019     0.15700
H663        H  0.46067099  0.43018220  0.70572888     0.15400
N664        N  0.42346679  0.37761714  0.68214733     0.74500
O665        O  0.03115861  0.34050570  0.74659099    -0.38900
O666        O  0.08079928  0.33331693  0.72648317    -0.38900
O667        O  0.39921261  0.35559428  0.69058946    -0.39600
O668        O  0.41414586  0.39655836  0.66575286    -0.39600
C669        C  0.33563920  0.10985377  0.57293915    -0.11900
C670        C  0.35654320  0.09535813  0.55547145     0.05100
C671        C  0.39097853  0.11444720  0.55012322    -0.07200
C672        C  0.40519148  0.14461132  0.56300254    -0.07900
C673        C  0.38487093  0.15760342  0.58063421    -0.02500
C674        C  0.34917138  0.14125022  0.58516864     0.04300
N675        N  0.32629827  0.15715398  0.60188737     0.66800
H676        H  0.30817825  0.09743336  0.57684598     0.15700
H677        H  0.43248872  0.15774660  0.55933835     0.15400
N678        N  0.41204817  0.10393597  0.53174608     0.74500
O679        O  0.30729806  0.18888046  0.59886514    -0.38900
O680        O  0.33265669  0.14567746  0.62050367    -0.38900
O681        O  0.40685826  0.12443441  0.51535006    -0.39600
O682        O  0.44286379  0.08379256  0.53379639    -0.39600
C683        C  0.37972873  0.42961453  0.58213783    -0.11900
C684        C  0.38240626  0.42806391  0.56023928     0.05100
C685        C  0.40276500  0.39572450  0.55105718    -0.07200
C686        C  0.41687864  0.36457989  0.56364231    -0.07900
C687        C  0.41136986  0.36449989  0.58541167    -0.02500
C688        C  0.39471075  0.39895064  0.59478789     0.04300
N689        N  0.39341741  0.40427194  0.61705030     0.66800
H690        H  0.36510555  0.45453850  0.58953244     0.15700
H691        H  0.43122136  0.33953499  0.55620762     0.15400
N692        N  0.40768085  0.39256952  0.52887017     0.74500
O693        O  0.41638828  0.42829646  0.62535936    -0.38900
O694        O  0.36275066  0.39682559  0.62652524    -0.38900
O695        O  0.44021241  0.40000598  0.52141625    -0.39600
O696        O  0.38497784  0.37142471  0.51833531    -0.39600
C697        C  0.22644703  0.07481363  0.57207863    -0.11900
C698        C  0.21895617  0.08495329  0.55103799     0.05100
C699        C  0.19812444  0.12031540  0.54671964    -0.07200
C700        C  0.18654271  0.14512241  0.56321097    -0.07900
C701        C  0.19854182  0.13769096  0.58397339    -0.02500
C702        C  0.21746592  0.10107311  0.58848586     0.04300
N703        N  0.23075152  0.09117476  0.60920533     0.66800
H704        H  0.24280973  0.04797317  0.57571191     0.15700
H705        H  0.17095446  0.17238801  0.55950393     0.15400
N706        N  0.18901613  0.13244483  0.52578416     0.74500
O707        O  0.21268566  0.06579525  0.61945708    -0.38900
O708        O  0.26549379  0.09705694  0.61400292    -0.38900
O709        O  0.15388918  0.13501014  0.52058596    -0.39600
O710        O  0.21269378  0.15355423  0.51625279    -0.39600
C711        C  0.27784875  0.37806096  0.56709849    -0.11900
C712        C  0.25331631  0.38820154  0.55019470     0.05100
C713        C  0.21546365  0.37357954  0.54974654    -0.07200
C714        C  0.20308476  0.34966145  0.56630226    -0.07900
C715        C  0.22751619  0.34088104  0.58349121    -0.02500
C716        C  0.26511011  0.35528799  0.58376138     0.04300
N717        N  0.29040878  0.34784356  0.60119065     0.66800
H718        H  0.30676650  0.38937985  0.56789359     0.15700
H719        H  0.17445656  0.33756039  0.56566974     0.15400
N720        N  0.19011043  0.38049959  0.53221144     0.74500
O721        O  0.29010540  0.37153074  0.61652067    -0.38900
O722        O  0.31818715  0.32356771  0.59924984    -0.38900
O723        O  0.18744010  0.35400458  0.51829786    -0.39600
O724        O  0.16298174  0.40565855  0.53400019    -0.39600
C725        C  0.15623188  0.12187467  0.29548194    -0.11900
C726        C  0.11652571  0.11959869  0.29122183     0.05100
C727        C  0.09200102  0.14984175  0.29924943    -0.07200
C728        C  0.10621175  0.17731548  0.31370961    -0.07900
C729        C  0.14531296  0.17761477  0.31922402    -0.02500
C730        C  0.17083648  0.15086000  0.30903483     0.04300
N731        N  0.21145467  0.15160577  0.31282880     0.66800
H732        H  0.17603953  0.09988453  0.28910361     0.15700
H733        H  0.08635490  0.19832139  0.32092570     0.15400
N734        N  0.05262362  0.15355756  0.29291478     0.74500
O735        O  0.22659400  0.12717711  0.32560052    -0.38900
O736        O  0.23243931  0.16720528  0.29922065    -0.38900
O737        O  0.02726293  0.14658941  0.30629274    -0.39600
O738        O  0.04398518  0.17593726  0.27763991    -0.39600
C739        C  0.14452254  0.41161613  0.34225735    -0.11900
C740        C  0.17060212  0.38227881  0.33525260     0.05100
C741        C  0.19021559  0.38858157  0.31630772    -0.07200
C742        C  0.18030677  0.42128476  0.30369174    -0.07900
C743        C  0.15129417  0.44866420  0.30961117    -0.02500
C744        C  0.13535637  0.44498537  0.32992122     0.04300
N745        N  0.11047312  0.47493015  0.33853729     0.66800
H746        H  0.13055791  0.40820917  0.35728538     0.15700
H747        H  0.19447660  0.42421287  0.28872991     0.15400
N748        N  0.22040586  0.36224573  0.30965792     0.74500
O749        O  0.07451061  0.47045165  0.33780286    -0.38900
O750        O  0.12422370  0.49858894  0.35187671    -0.38900
O751        O  0.21377169  0.33783436  0.29510492    -0.39600
O752        O  0.25482046  0.37081751  0.31389465    -0.39600
C753        C  0.25158695  0.09827994  0.43486959    -0.11900
C754        C  0.22855658  0.08324277  0.45084511     0.05100
C755        C  0.19066422  0.09868787  0.45299803    -0.07200
C756        C  0.17725260  0.12930684  0.43962743    -0.07900
C757        C  0.20122461  0.14539440  0.42436673    -0.02500
C758        C  0.23855454  0.12906227  0.42186939     0.04300
N759        N  0.26414111  0.14405229  0.40652335     0.66800
H760        H  0.28079040  0.08694756  0.43290560     0.15700
H761        H  0.14810710  0.14089970  0.44130985     0.15400
N762        N  0.16485011  0.08308184  0.46794588     0.74500
O763        O  0.28652371  0.17139678  0.41165446    -0.38900
O764        O  0.27153747  0.12346426  0.39043959    -0.38900
O765        O  0.15382216  0.10518856  0.48274169    -0.39600
O766        O  0.14374250  0.05495325  0.46240340    -0.39600
C767        C  0.24111421  0.33437466  0.45204646    -0.11900
C768        C  0.20790648  0.34536251  0.44078337     0.05100
C769        C  0.18748995  0.38008743  0.44639991    -0.07200
C770        C  0.20409410  0.40672875  0.46065262    -0.07900
C771        C  0.23959587  0.39738484  0.47060405    -0.02500
C772        C  0.25602027  0.35897072  0.46754436     0.04300
N773        N  0.28759705  0.34400798  0.48003212     0.66800
H774        H  0.25584704  0.30655431  0.44863458     0.15700
H775        H  0.18963624  0.43485277  0.46359656     0.15400
N776        N  0.14948491  0.38750606  0.43825854     0.74500
O777        O  0.32084080  0.34251267  0.47222663    -0.38900
O778        O  0.28048026  0.32202830  0.49546220    -0.38900
O779        O  0.12208304  0.36741991  0.44504260    -0.39600
O780        O  0.14459160  0.40774709  0.42176459    -0.39600
C781        C  0.50937161  0.08864834  0.33105955    -0.11900
C782        C  0.48916624  0.07582290  0.31305837     0.05100
C783        C  0.45520168  0.09724308  0.30702787    -0.07200
C784        C  0.44306902  0.13079565  0.31851741    -0.07900
C785        C  0.46410433  0.14405435  0.33599313    -0.02500
C786        C  0.49750018  0.12246302  0.34230582     0.04300
N787        N  0.52083939  0.13549930  0.35951144     0.66800
H788        H  0.53584354  0.07353897  0.33589983     0.15700
H789        H  0.41699454  0.14669812  0.31372675     0.15400
N790        N  0.43218969  0.08534581  0.28949200     0.74500
O791        O  0.51781208  0.11899437  0.37717447    -0.38900
O792        O  0.55061729  0.15486232  0.35573254    -0.38900
O793        O  0.40190616  0.06656370  0.29290744    -0.39600
O794        O  0.43508105  0.10374532  0.27236666    -0.39600
C795        C  0.49285767  0.35857778  0.31756177    -0.11900
C796        C  0.45386727  0.35139970  0.32027513     0.05100
C797        C  0.42674508  0.37189368  0.30741621    -0.07200
C798        C  0.43891939  0.40181581  0.29356714    -0.07900
C799        C  0.47840762  0.41025025  0.29139237    -0.02500
C800        C  0.50532152  0.38597570  0.30276914     0.04300
N801        N  0.54566925  0.38714025  0.29910513     0.66800
H802        H  0.51409600  0.34197807  0.32678532     0.15700
H803        H  0.41743779  0.41855410  0.28462248     0.15400
N804        N  0.38704855  0.36172009  0.30797594     0.74500
O805        O  0.56707274  0.39975854  0.31362345    -0.38900
O806        O  0.06018855  0.36721402  0.28386752    -0.38900
O807        O  0.36481924  0.37908558  0.32072808    -0.39600
O808        O  0.37657485  0.33000824  0.29937809    -0.39600
C809        C  0.38337101  0.10582683  0.45490049    -0.11900
C810        C  0.34938049  0.11830010  0.46474036     0.05100
C811        C  0.33593792  0.15770260  0.46159615    -0.07200
C812        C  0.35424153  0.18205077  0.44712204    -0.07900
C813        C  0.38758267  0.16912793  0.43650999    -0.02500
C814        C  0.40335339  0.13123434  0.44163872     0.04300
N815        N  0.44052011  0.11866426  0.43450795     0.66800
H816        H  0.39527575  0.07654034  0.45807852     0.15700
H817        H  0.34199478  0.21121234  0.44398605     0.15400
N818        N  0.30378836  0.17355281  0.47298794     0.74500
O819        O  0.46960913  0.12783421  0.44539471    -0.38900
O820        O  0.44313134  0.08918991  0.42237596    -0.38900
O821        O  0.30950874  0.19109736  0.49024818    -0.39600
O822        O  0.26993020  0.16487346  0.46760067    -0.39600
C823        C  0.42462787  0.39232064  0.43794274    -0.11900
C824        C  0.39889486  0.37084091  0.42546091     0.05100
C825        C  0.35943136  0.38045570  0.42604308    -0.07200
C826        C  0.34612929  0.41136753  0.43878178    -0.07900
C827        C  0.37134228  0.43272444  0.45189589    -0.02500
C828        C  0.41121530  0.42269777  0.45138538     0.04300
N829        N  0.43858897  0.44261836  0.46426235     0.66800
H830        H  0.45513265  0.38493742  0.43754714     0.15700
H831        H  0.31534005  0.41728266  0.43910255     0.15400
N832        N  0.33233873  0.35770851  0.41433924     0.74500
O833        O  0.45000130  0.42626815  0.48108177    -0.38900
O834        O  0.45974949  0.46782471  0.45585820    -0.38900
O835        O  0.32183480  0.32497545  0.42152189    -0.39600
O836        O  0.32515430  0.36622939  0.39536335    -0.39600
N837        N  0.40677471  0.76563864  0.40773067    -0.36200
N838        N  0.43721214  0.81771644  0.37519279    -0.56800
N839        N  0.44270457  0.75064014  0.34664951    -0.36200
N840        N  0.41790895  0.69808757  0.38057754    -0.56800
C841        C  0.41169626  0.79913613  0.41899375     0.27300
C842        C  0.40107297  0.73589545  0.42156045     0.27300
C843        C  0.45819246  0.77878552  0.33438324     0.27300
C844        C  0.45146658  0.71489210  0.33805116     0.27300
C845        C  0.42886172  0.84529889  0.38998529     0.36000
C846        C  0.44659159  0.83764632  0.35759452     0.36000
C847        C  0.39591228  0.68160799  0.39545448     0.36000
C848        C  0.41789988  0.67301447  0.36404845     0.36000
C849        C  0.40855805  0.79080711  0.44024087    -0.21500
C850        C  0.40244840  0.75088072  0.44188206    -0.21500
C851        C  0.47576221  0.76079722  0.31730309    -0.21500
C852        C  0.47183754  0.72066241  0.31971397    -0.21500
C853        C  0.43453583  0.88280290  0.38205053    -0.22600
C854        C  0.44598141  0.87797650  0.36162722    -0.22600
C855        C  0.38106516  0.64643123  0.38807477    -0.22600
C856        C  0.39569378  0.64057331  0.36833578    -0.22600
C857        C  0.41623232  0.83750190  0.41062520    -0.17900
C858        C  0.39201659  0.69630358  0.41618277    -0.17900
C859        C  0.43984862  0.67748864  0.34572450    -0.17900
C860        C  0.45650441  0.82024808  0.33798858    -0.17900
H861        H  0.41049320  0.81135867  0.45325405     0.15000
H862        H  0.39884126  0.73492020  0.45643120     0.15000
H863        H  0.49012195  0.77497514  0.30442780     0.15000
H864        H  0.48176611  0.69857005  0.30870279     0.15000
H865        H  0.43080332  0.91078558  0.39013150     0.13300
H866        H  0.45283426  0.90161238  0.35095447     0.13300
H867        H  0.36244002  0.62651677  0.39624662     0.13300
H868        H  0.39055127  0.61538956  0.35824379     0.13300
H869        H  0.40252318  0.76436471  0.39157459     0.26500
H870        H  0.42451267  0.75570162  0.35917909     0.26500
N871        N  0.18759895  0.75230852  0.40979678    -0.36200
N872        N  0.17518351  0.70306687  0.37317754    -0.56800
N873        N  0.17391191  0.77377822  0.34618582    -0.36200
N874        N  0.18272450  0.82365431  0.38349405    -0.56800
C875        C  0.18711862  0.71673613  0.41954399     0.27300
C876        C  0.18844637  0.78036552  0.42498220     0.27300
C877        C  0.15975533  0.74659657  0.33249646     0.27300
C878        C  0.16606608  0.81029888  0.33800236     0.27300
C879        C  0.17954774  0.67398534  0.38771179     0.36000
C880        C  0.16799767  0.68515847  0.35455324     0.36000
C881        C  0.19609441  0.83931665  0.40170731     0.36000
C882        C  0.18903408  0.85062016  0.36826640     0.36000
C883        C  0.18759847  0.72249592  0.44118189    -0.21500
C884        C  0.18755807  0.76251590  0.44457300    -0.21500
C885        C  0.14360976  0.76621627  0.31526198    -0.21500
C886        C  0.14695476  0.80613775  0.31890292    -0.21500
C887        C  0.17366599  0.63757868  0.37844808    -0.22600
C888        C  0.16593106  0.64458861  0.35760773    -0.22600
C889        C  0.21079040  0.87642653  0.39796900    -0.22600
C890        C  0.20622299  0.88358226  0.37685738    -0.22600
C891        C  0.18804105  0.67936687  0.40938398    -0.17900
C892        C  0.19528698  0.82097706  0.42175796    -0.17900
C893        C  0.17695682  0.84715560  0.34698116    -0.17900
C894        C  0.16107643  0.70460109  0.33499493    -0.17900
H895        H  0.18851226  0.70057980  0.45350937     0.15000
H896        H  0.18870185  0.77671464  0.45983421     0.15000
H897        H  0.13029297  0.75332337  0.30148188     0.15000
H898        H  0.13655638  0.82941938  0.30852036     0.15000
H899        H  0.17415147  0.60893210  0.38600251     0.13300
H900        H  0.15910107  0.62207477  0.34614936     0.13300
H901        H  0.22382185  0.89626005  0.40922573     0.13300
H902        H  0.21474706  0.91000901  0.36873308     0.13300
H903        H  0.19200987  0.75690118  0.39433863     0.26500
H904        H  0.19082784  0.76779418  0.35912297     0.26500
O905        O  0.36962409  0.96445647  0.48429584    -0.79800
O906        O  0.34463842  0.56122802  0.52249567    -0.79800
O907        O  0.32546449  0.55329524  0.47415631    -0.79800
O908        O  0.33119266  0.96191892  0.55286420    -0.79800
O909        O  0.30749871  0.60585256  0.49291152    -0.79900
O910        O  0.37356453  0.96050937  0.52743124    -0.79800
O911        O  0.31079356  0.54556827  0.55031014    -0.79800
O912        O  0.32264453  0.97311226  0.46213627    -0.79800
C913        C  0.35655141  0.96046602  0.46585767     1.09900
C914        C  0.33789251  0.56493440  0.54198025     1.09800
C915        C  0.32470765  0.59148407  0.47718876     1.09900
C916        C  0.36474947  0.95262867  0.54606567     1.09800
O917        O  0.30795926  0.90976206  0.52799976    -0.79800
O918        O  0.24866998  0.55935379  0.48396384    -0.79900
O919        O  0.25230350  0.96204613  0.48232776    -0.79800
O920        O  0.23440148  0.53037631  0.53226457    -0.79800
O921        O  0.26558843  0.58302050  0.52497858    -0.79800
O922        O  0.30003671  0.91818703  0.48595146    -0.79800
O923        O  0.25615197  0.94589207  0.53404828    -0.79700
O924        O  0.26184507  0.52425076  0.45553990    -0.79800
Co925      Co  0.33638352  0.94247003  0.50651745     1.51500
Co926      Co  0.29906654  0.55573725  0.50360937     1.51700
Co927      Co  0.28530285  0.50810507  0.48085636     1.51600
Co928      Co  0.28045177  0.49810923  0.54058296     1.51500
O929        O  0.30086720  0.49737013  0.51058428    -1.41700
C930        C  0.27456183  0.91361052  0.53592413     1.09800
C931        C  0.24454574  0.55335330  0.46381650     1.09900
C932        C  0.26550204  0.92669823  0.48055312     1.09900
C933        C  0.23761597  0.56723174  0.53391803     1.09800
N934        N  0.46058259  0.74166291  0.66172224    -0.36200
N935        N  0.43075555  0.68856613  0.63121513    -0.56800
N936        N  0.42682556  0.75390807  0.59966691    -0.36200
N937        N  0.45377627  0.80698781  0.63128975    -0.56800
C938        C  0.45549829  0.71001179  0.67438144     0.27300
C939        C  0.46643846  0.77337993  0.67420573     0.27300
C940        C  0.40558408  0.72582685  0.59019326     0.27300
C941        C  0.41608741  0.78939023  0.59113441     0.27300
C942        C  0.44023573  0.66151617  0.64625619     0.36000
C943        C  0.42270969  0.66813403  0.61347517     0.36000
C944        C  0.47708135  0.82259097  0.64597288     0.36000
C945        C  0.45670691  0.82982412  0.61406405     0.36000
C946        C  0.95576687  0.72384237  0.69726892    -0.21500
C947        C  0.95791662  0.76432723  0.69781591    -0.21500
C948        C  0.38187095  0.74329133  0.57499671    -0.21500
C949        C  0.38805475  0.78332927  0.57578109    -0.21500
C950        C  0.43715792  0.62370715  0.63810210    -0.22600
C951        C  0.42631745  0.62787585  0.61738619    -0.22600
C952        C  0.49578186  0.85497162  0.63788744    -0.22600
C953        C  0.48293980  0.85938670  0.61748261    -0.22600
C954        C  0.45042469  0.67048658  0.66743703    -0.17900
C955        C  0.47734987  0.81118859  0.66722982    -0.17900
C956        C  0.43210490  0.82661305  0.59653468    -0.17900
C957        C  0.40765095  0.68475128  0.59454981    -0.17900
H958        H  0.95862447  0.70497199  0.71087784     0.15000
H959        H  0.96198019  0.78198178  0.71184571     0.15000
H960        H  0.36157677  0.72880056  0.56466701     0.15000
H961        H  0.37311761  0.80530023  0.56620437     0.15000
H962        H  0.44160626  0.59590503  0.64624046     0.13300
H963        H  0.42069739  0.60387697  0.60657722     0.13300
H964        H  0.51551132  0.87414971  0.64608343     0.13300
H965        H  0.49073964  0.88248759  0.60668136     0.13300
H966        H  0.46509737  0.74099195  0.64564131     0.26500
H967        H  0.44957917  0.74831417  0.61008777     0.26500
N968        N  0.20765803  0.74232546  0.60799989    -0.36200
N969        N  0.18492630  0.68499934  0.63851143    -0.56800
N970        N  0.18080180  0.74818749  0.67041361    -0.36200
N971        N  0.20878527  0.80464382  0.64060865    -0.56800
C972        C  0.21365143  0.70819370  0.59714173     0.27300
C973        C  0.22729106  0.77084749  0.59814022     0.27300
C974        C  0.17694930  0.71583555  0.68261071     0.27300
C975        C  0.18560602  0.77956963  0.68336309     0.27300
C976        C  0.17896339  0.66374741  0.62080284     0.36000
C977        C  0.16552449  0.66697844  0.65386049     0.36000
C978        C  0.21676659  0.82670093  0.62351563     0.36000
C979        C  0.19952847  0.83027081  0.65628795     0.36000
C980        C  0.23698374  0.71542257  0.58008130    -0.21500
C981        C  0.24542180  0.75483152  0.58065909    -0.21500
C982        C  0.17954314  0.72679425  0.70362318    -0.21500
C983        C  0.18421470  0.76707155  0.70409024    -0.21500
C984        C  0.15536616  0.63228068  0.62479000    -0.22600
C985        C  0.14675206  0.63433193  0.64579210    -0.22600
C986        C  0.21390865  0.86650243  0.62857963    -0.22600
C987        C  0.20304632  0.86875707  0.64930891    -0.22600
C988        C  0.19694226  0.67120041  0.60153544    -0.17900
C989        C  0.22750755  0.81150409  0.60354463    -0.17900
C990        C  0.18847513  0.81946558  0.67691772    -0.17900
C991        C  0.16721346  0.67763559  0.67534397    -0.17900
H992        H  0.24730895  0.69448739  0.56844282     0.15000
H993        H  0.26314508  0.76994154  0.56947389     0.15000
H994        H  0.17702987  0.70799783  0.71727098     0.15000
H995        H  0.18625901  0.78498657  0.71814803     0.15000
H996        H  0.14578950  0.61000766  0.61378635     0.13300
H997        H  0.12917896  0.61379553  0.65423110     0.13300
H998        H  0.21893306  0.89136291  0.61836522     0.13300
H999        H  0.19820467  0.89566359  0.65821380     0.13300
H1000       H  0.18787741  0.74701810  0.61993259     0.26500
H1001       H  0.17540350  0.74955874  0.65434702     0.26500
O1002       O  0.02941821  0.96146727  0.28142065    -0.79800
O1003       O  0.10027841  0.98639401  0.21195118    -0.79800
O1004       O  0.52358096  0.95361902  0.23764230    -0.79800
O1005       O  0.15346868  0.98533498  0.27594174    -0.79800
O1006       O  0.01995320  0.98960980  0.21022482    -0.79900
O1007       O  0.09964714  0.99251364  0.29536483    -0.79800
O1008       O  0.11298141  0.95574956  0.24207798    -0.79800
O1009       O  0.47689870  0.96715519  0.27098716    -0.79800
C1010       C  0.50132025  0.94532473  0.28117470     1.09900
C1011       C  0.11793683  0.95911923  0.22229920     1.09800
C1012       C  0.51550188  0.96034470  0.21849749     1.09900
C1013       C  0.13521801  0.97950140  0.29303119     1.09800
O1014       O  0.06831652  0.57235775  0.28417086    -0.79800
O1015       O  0.02333061  0.57620207  0.22820864    -0.79900
O1016       O  0.49222098  0.54205788  0.27762752    -0.79800
O1017       O  0.14661558  0.52833724  0.23738391    -0.79800
O1018       O  0.10219322  0.57137981  0.22660217    -0.79800
O1019       O  0.02556092  0.52544675  0.30822815    -0.79800
O1020       O  0.12532119  0.55392103  0.27463945    -0.79700
O1021       O  0.47560803  0.53006572  0.23535772    -0.79800
Co1022     Co  0.04989119  0.01835047  0.28060893     1.51500
Co1023     Co  0.06050430  0.02835362  0.21839952     1.51700
Co1024     Co  0.51689223  0.99773176  0.25819321     1.51600
Co1025     Co  0.11370303  0.00595928  0.25869497     1.51500
O1026       O  0.06198811  0.02042223  0.24965362    -1.41700
C1027       C  0.10321497  0.57995773  0.28252971     1.09800
C1028       C  0.48593902  0.56048443  0.22500535     1.09900
C1029       C  0.49616417  0.54256149  0.29791228     1.09900
C1030       C  0.13627326  0.55781829  0.22604681     1.09800
O1031       O  0.45735967  0.74429362  0.98937832    -0.79800
O1032       O  0.09848901  0.66948192  0.02176497    -0.79800
O1033       O  0.08788026  0.74562790  0.96336429    -0.79800
O1034       O  0.01405611  0.71237682  0.04729221    -0.79800
O1035       O  0.09896647  0.69076328  0.98024822    -0.79900
O1036       O  0.49929104  0.69345719  0.01386588    -0.79800
O1037       O  0.09339328  0.69990973  0.05188317    -0.79800
O1038       O  0.01072503  0.73295395  0.97108219    -0.79800
C1039       C  0.97326539  0.73195529  0.97272409     1.09900
C1040       C  0.10471469  0.66988092  0.04124575     1.09800
C1041       C  0.10249309  0.71110214  0.96377957     1.09900
C1042       C  0.49517210  0.68894406  0.03353792     1.09800
O1043       O  0.47506708  0.76722704  0.02772382    -0.79800
O1044       O  0.14038667  0.76092985  0.99156813    -0.79900
O1045       O  0.03557976  0.80634896  0.96237688    -0.79800
O1046       O  0.10287984  0.78430077  0.04412682    -0.79800
O1047       O  0.14402086  0.73944090  0.03278266    -0.79800
O1048       O  0.50234666  0.80710709  0.99207055    -0.79800
O1049       O  0.02745067  0.79685007  0.04217754    -0.79700
O1050       O  0.09672154  0.80935704  0.99058603    -0.79800
Co1051     Co  0.00626169  0.74745228  0.00318150     1.51500
Co1052     Co  0.11625794  0.71623702  0.00683885     1.51700
Co1053     Co  0.05329203  0.77186303  0.98402992     1.51600
Co1054     Co  0.05947977  0.74834093  0.04408760     1.51500
O1055       O  0.06322674  0.74361582  0.01181486    -1.41700
C1056       C  0.48747752  0.79119976  0.04109278     1.09800
C1057       C  0.13145859  0.79693415  0.98784591     1.09900
C1058       C  0.00824414  0.82045487  0.97326625     1.09900
C1059       C  0.13670425  0.77060603  0.04359541     1.09800
N1060       N  0.31036712  0.90342975  0.93232254    -0.36200
N1061       N  0.25418926  0.88859753  0.89829121    -0.56800
N1062       N  0.31156913  0.90683903  0.86647196    -0.36200
N1063       N  0.36688530  0.91801502  0.89928397    -0.56800
C1064       C  0.28295234  0.88444838  0.94315096     0.27300
C1065       C  0.34426074  0.89824640  0.94295910     0.27300
C1066       C  0.28301843  0.89105444  0.85468331     0.27300
C1067       C  0.34494034  0.90300031  0.85554173     0.27300
C1068       C  0.23118693  0.88709111  0.91544783     0.36000
C1069       C  0.23066269  0.89294073  0.88111404     0.36000
C1070       C  0.38498455  0.93047048  0.91686237     0.36000
C1071       C  0.38734096  0.93097918  0.88286901     0.36000
C1072       C  0.29916289  0.86957390  0.96166803    -0.21500
C1073       C  0.33793904  0.87711839  0.96120043    -0.21500
C1074       C  0.29839660  0.87665456  0.83606591    -0.21500
C1075       C  0.33742668  0.88406470  0.83663173    -0.21500
C1076       C  0.19296102  0.88994191  0.90908890    -0.22600
C1077       C  0.19262852  0.89467385  0.88758753    -0.22600
C1078       C  0.41681101  0.95219122  0.91163994    -0.22600
C1079       C  0.41813989  0.95283489  0.89005543    -0.22600
C1080       C  0.24402254  0.87945437  0.93649317    -0.17900
C1081       C  0.38061972  0.91178667  0.93634895    -0.17900
C1082       C  0.38123448  0.91828031  0.86193299    -0.17900
C1083       C  0.24309338  0.89253646  0.85968464    -0.17900
H1084       H  0.28496126  0.85377992  0.97403218     0.15000
H1085       H  0.35892859  0.86794694  0.97301341     0.15000
H1086       H  0.28291000  0.86281152  0.82325382     0.15000
H1087       H  0.35776689  0.87684618  0.82437059     0.15000
H1088       H  0.16774650  0.88895496  0.91887847     0.13300
H1089       H  0.16694851  0.89838825  0.87797153     0.13300
H1090       H  0.43845352  0.96349431  0.92232352     0.13300
H1091       H  0.44063563  0.96562649  0.88080355     0.13300
H1092       H  0.30592182  0.91989696  0.91866496     0.26500
H1093       H  0.30724281  0.92359946  0.88002442     0.26500
N1094       N  0.29770246  0.67169056  0.90230203    -0.36200
N1095       N  0.24156197  0.65601679  0.87015993    -0.56800
N1096       N  0.30129504  0.62551034  0.84202113    -0.36200
N1097       N  0.35812196  0.63984232  0.87526050    -0.56800
C1098       C  0.26510201  0.67482134  0.91379285     0.27300
C1099       C  0.32782116  0.66827237  0.91591240     0.27300
C1100       C  0.26930734  0.61189198  0.83224607     0.28500
C1101       C  0.33195302  0.60422846  0.83481413     0.27300
C1102       C  0.21786957  0.67390310  0.88414686     0.36000
C1103       C  0.22046796  0.65099969  0.85243401     0.36000
C1104       C  0.37978081  0.65860714  0.88980636     0.36000
C1105       C  0.38129222  0.63237161  0.85873845     0.36000
C1106       C  0.27481978  0.67376497  0.93503243    -0.21500
C1107       C  0.31435585  0.66952596  0.93635767    -0.21500
C1108       C  0.27990571  0.58243270  0.81812491    -0.21500
C1109       C  0.31944648  0.57760629  0.81973654    -0.21500
C1110       C  0.18158076  0.67968501  0.87526591    -0.22600
C1111       C  0.18365530  0.66682584  0.85499340    -0.22600
C1112       C  0.41671454  0.66367274  0.88235403    -0.22600
C1113       C  0.41778404  0.64662545  0.86272151    -0.22600
C1114       C  0.22717142  0.68057283  0.90550626    -0.17900
C1115       C  0.36721000  0.66831865  0.91027027    -0.17900
C1116       C  0.37089904  0.60921391  0.84115383    -0.17900
C1117       C  0.23096208  0.62564305  0.83571583    -0.17900
H1118       H  0.25560126  0.67645700  0.94825360     0.15000
H1119       H  0.33135393  0.66834720  0.95073881     0.15000
H1120       H  0.26107957  0.56583460  0.80788601     0.15000
H1121       H  0.33691747  0.55662597  0.81094991     0.15000
H1122       H  0.15538660  0.68955395  0.88280240     0.13300
H1123       H  0.15960953  0.66593542  0.84402682     0.13300
H1124       H  0.44065342  0.67725202  0.89042472     0.13300
H1125       H  0.44266048  0.64440766  0.85264928     0.13300
H1126       H  0.29995290  0.67664142  0.88624145     0.26500
H1127       H  0.30248307  0.64992235  0.85194549     0.26500
O1128       O  0.09351290  0.90932370  0.74794359    -0.79800
O1129       O  0.06969479  0.57636345  0.78189546    -0.79800
O1130       O  0.09776600  0.52170030  0.71439291    -0.79800
O1131       O  0.12180964  0.95951595  0.79392848    -0.79800
O1132       O  0.09288556  0.55626182  0.74392264    -0.79900
O1133       O  0.08845750  0.90649782  0.79249638    -0.79800
O1134       O  0.11319850  0.53127355  0.78717982    -0.79800
O1135       O  0.12612408  0.96326242  0.74192912    -0.79800
C1136       C  0.12198382  0.92626878  0.73950090     1.09900
C1137       C  0.10357462  0.56685208  0.78805611     1.09800
C1138       C  0.10424426  0.55317889  0.72472930     1.09900
C1139       C  0.11920522  0.92380898  0.79827322     1.09800
O1140       O  0.00770627  0.93655748  0.78722576    -0.79800
O1141       O  0.01999239  0.58325555  0.74692906    -0.79900
O1142       O  0.05371008  0.95334469  0.72116350    -0.79800
O1143       O  0.03359081  0.53114958  0.80646398    -0.79800
O1144       O  0.99766575  0.53290104  0.77773770    -0.79800
O1145       O  0.01342573  0.93611124  0.74551421    -0.79800
O1146       O  0.04361147  0.95837104  0.81312777    -0.79700
O1147       O  0.02563992  0.52768632  0.72865541    -0.79800
Co1148     Co  0.05117762  0.92597582  0.76829716     1.51500
Co1149     Co  0.04413081  0.53934516  0.76054570     1.51700
Co1150     Co  0.07872336  0.99714299  0.73794958     1.51600
Co1151     Co  0.07929209  0.99640525  0.79793046     1.51500
O1152       O  0.06285234  0.98559760  0.76810581    -1.41700
C1153       C  0.01159231  0.94494233  0.80638199     1.09800
C1154       C  0.01291548  0.56393625  0.73023546     1.09900
C1155       C  0.02471286  0.93375459  0.72686791     1.09900
C1156       C  0.00105977  0.53829794  0.79739259     1.09800
N1157       N  0.31133212  0.60363577  0.15457159    -0.36200
N1158       N  0.25107318  0.61016266  0.12502378    -0.56800
N1159       N  0.30628420  0.62212252  0.09118888    -0.36200
N1160       N  0.36775360  0.61249113  0.12180142    -0.56800
C1161       C  0.28201240  0.58530334  0.16362182     0.27300
C1162       C  0.34371819  0.58621588  0.16176813     0.27300
C1163       C  0.27419395  0.60968843  0.08094483     0.27300
C1164       C  0.33741079  0.61380837  0.07907206     0.27300
C1165       C  0.23343791  0.61920997  0.14328947     0.36000
C1166       C  0.23035381  0.62750649  0.10951239     0.36000
C1167       C  0.38726356  0.62140335  0.13966312     0.36000
C1168       C  0.38554839  0.63063368  0.10585764     0.36000
C1169       C  0.29557070  0.55362097  0.17553697    -0.21500
C1170       C  0.33522353  0.55467206  0.17471099    -0.21500
C1171       C  0.28546094  0.59205676  0.06214206    -0.21500
C1172       C  0.32514257  0.59552071  0.06075981    -0.21500
C1173       C  0.20201759  0.64418643  0.13957307    -0.22600
C1174       C  0.20017832  0.64971217  0.11806724    -0.22600
C1175       C  0.41696079  0.64657566  0.13522258    -0.22600
C1176       C  0.41576844  0.65258469  0.11373817    -0.22600
C1177       C  0.24451585  0.60070083  0.16241360    -0.17900
C1178       C  0.37929038  0.60365959  0.15923949    -0.17900
C1179       C  0.37600311  0.62409440  0.08440521    -0.17900
C1180       C  0.23563439  0.61704788  0.08815959    -0.17900
H1181       H  0.27880401  0.53325908  0.18457552     0.15000
H1182       H  0.35538337  0.53558490  0.18320897     0.15000
H1183       H  0.26725472  0.57790556  0.05058474     0.15000
H1184       H  0.34296242  0.58505514  0.04796547     0.15000
H1185       H  0.18199490  0.65608676  0.15099301     0.13300
H1186       H  0.17806194  0.66653720  0.10971390     0.13300
H1187       H  0.43755922  0.65883300  0.14619768     0.13300
H1188       H  0.43543549  0.67033219  0.10494310     0.13300
H1189       H  0.30963638  0.63062373  0.14658757     0.26500
H1190       H  0.30659453  0.63899498  0.10494720     0.26500
N1191       N  0.31248403  0.85566057  0.10769296    -0.36200
N1192       N  0.25526577  0.86472687  0.13954715    -0.56800
N1193       N  0.31550193  0.88166838  0.17140904    -0.36200
N1194       N  0.37224243  0.87481038  0.13813813    -0.56800
C1195       C  0.28049815  0.85103418  0.09571529     0.27300
C1196       C  0.34232099  0.86053950  0.09455415     0.27300
C1197       C  0.28370956  0.89771316  0.18044406     0.27300
C1198       C  0.34663047  0.89891576  0.18031657     0.27300
C1199       C  0.23308840  0.84736572  0.12463230     0.36000
C1200       C  0.23404469  0.86716368  0.15720218     0.36000
C1201       C  0.39390883  0.86111129  0.12203743     0.36000
C1202       C  0.39439670  0.87141223  0.15571895     0.36000
C1203       C  0.29000362  0.85309097  0.07463063    -0.21500
C1204       C  0.32901361  0.85909707  0.07388926    -0.21500
C1205       C  0.29484400  0.92493443  0.19560249    -0.21500
C1206       C  0.33452839  0.92605669  0.19530848    -0.21500
C1207       C  0.19750305  0.83876960  0.13288013    -0.22600
C1208       C  0.19790543  0.85183427  0.15340950    -0.22600
C1209       C  0.43013671  0.84937302  0.12943112    -0.22600
C1210       C  0.43019253  0.85525222  0.15077030    -0.22600
C1211       C  0.24372179  0.84168968  0.10332965    -0.17900
C1212       C  0.38159157  0.85936184  0.10070927    -0.17900
C1213       C  0.38541613  0.89009355  0.17506158    -0.17900
C1214       C  0.24508232  0.88763192  0.17569620    -0.17900
H1215       H  0.27103789  0.84942688  0.06116462     0.15000
H1216       H  0.34586216  0.86017493  0.05971009     0.15000
H1217       H  0.27629481  0.94267599  0.20561280     0.15000
H1218       H  0.35229863  0.94514950  0.20480935     0.15000
H1219       H  0.17337123  0.82562799  0.12476885     0.13300
H1220       H  0.17411738  0.85073081  0.16422285     0.13300
H1221       H  0.45420156  0.83793653  0.12044598     0.13300
H1222       H  0.45445418  0.85009925  0.16133819     0.13300
H1223       H  0.31477470  0.84952192  0.12362971     0.26500
H1224       H  0.31607516  0.85821679  0.16077647     0.26500
C1225       C  0.13623809  0.57927218  0.82090366    -0.11900
C1226       C  0.13027488  0.59188955  0.80010157     0.05100
C1227       C  0.15906667  0.61483180  0.79063457    -0.07200
C1228       C  0.19219158  0.62495684  0.80225323    -0.07900
C1229       C  0.19851130  0.61050393  0.82266435    -0.02500
C1230       C  0.17032388  0.58680319  0.83182212     0.04300
N1231       N  0.17659929  0.56847946  0.85185560     0.66800
H1232       H  0.11570920  0.55986866  0.82809528     0.15700
H1233       H  0.21340396  0.64365907  0.79518252     0.15400
N1234       N  0.15638413  0.62690816  0.76916799     0.74500
O1235       O  0.16227026  0.58441339  0.86801144    -0.38900
O1236       O  0.18554030  0.53215789  0.85240017    -0.38900
O1237       O  0.14977786  0.66301624  0.76532254    -0.39600
O1238       O  0.17372834  0.60624394  0.75555593    -0.39600
C1239       C  0.41060117  0.60032911  0.80895576    -0.11900
C1240       C  0.40252323  0.58860435  0.82939524     0.05100
C1241       C  0.42548272  0.55845486  0.83881330    -0.07200
C1242       C  0.45787388  0.54264314  0.82821197    -0.07900
C1243       C  0.46617573  0.55447284  0.80750036    -0.02500
C1244       C  0.44122269  0.58297980  0.79785652     0.04300
N1245       N  0.44503964  0.59348699  0.77636130     0.66800
H1246       H  0.39260220  0.62284599  0.80140065     0.15700
H1247       H  0.47537426  0.51971557  0.83573871     0.15400
N1248       N  0.41431162  0.54194503  0.85845283     0.74500
O1249       O  0.42148527  0.57912172  0.76334401    -0.38900
O1250       O  0.46160650  0.62514525  0.77187714    -0.38900
O1251       O  0.38461386  0.52114333  0.85906600    -0.39600
O1252       O  0.42821915  0.55528705  0.87538196    -0.39600
C1253       C  0.18195233  0.86941455  0.84059834    -0.11900
C1254       C  0.21366144  0.89495356  0.84175291     0.05100
C1255       C  0.21624816  0.92394946  0.82586675    -0.07200
C1256       C  0.18684229  0.92867684  0.81079161    -0.07900
C1257       C  0.15276067  0.90666930  0.81104141    -0.02500
C1258       C  0.15142992  0.87529022  0.82573992     0.04300
N1259       N  0.11954100  0.84946245  0.82621999     0.66800
H1260       H  0.18011024  0.84551994  0.85183542     0.15700
H1261       H  0.18999162  0.95211734  0.79937936     0.15400
N1262       N  0.24754948  0.95069179  0.82522047     0.74500
O1263       O  0.12209451  0.81701605  0.81646590    -0.38900
O1264       O  0.09563512  0.85299332  0.84093719    -0.38900
O1265       O  0.27185189  0.94692625  0.81070477    -0.39600
O1266       O  0.24415340  0.98361853  0.83442383    -0.39600
C1267       C  0.40947935  0.94175959  0.82789546    -0.11900
C1268       C  0.41421366  0.92076392  0.84670973     0.05100
C1269       C  0.45090856  0.90356265  0.85124403    -0.07200
C1270       C  0.48286493  0.91193317  0.83853313    -0.07900
C1271       C  0.47823375  0.93327825  0.81964059    -0.02500
C1272       C  0.44014255  0.94584654  0.81382050     0.04300
N1273       N  0.43103787  0.96016032  0.79318683     0.66800
H1274       H  0.38127174  0.95381204  0.82366444     0.15700
H1275       H  0.01375985  0.90999516  0.84497925     0.15400
N1276       N  0.45511273  0.87479883  0.86760516     0.74500
O1277       O  0.42349626  0.93506572  0.77910614    -0.38900
O1278       O  0.41696257  0.99463916  0.79121524    -0.38900
O1279       O  0.43898677  0.84189061  0.86570430    -0.39600
O1280       O  0.47219822  0.88324792  0.88458072    -0.39600
C1281       C  0.13036202  0.62511435  0.07037305    -0.11900
C1282       C  0.13433948  0.64191024  0.05034886     0.05100
C1283       C  0.17075084  0.63821579  0.04078651    -0.07200
C1284       C  0.20347413  0.62865362  0.05282441    -0.07900
C1285       C  0.20057614  0.61627048  0.07370196    -0.02500
C1286       C  0.16284059  0.60856855  0.08115527     0.04300
N1287       N  0.15745369  0.58489696  0.09962216     0.66800
H1288       H  0.10215857  0.62459628  0.07744663     0.15700
H1289       H  0.23104717  0.63362444  0.04577611     0.15400
N1290       N  0.17533806  0.64211254  0.01870467     0.74500
O1291       O  0.12934466  0.59170284  0.11161171    -0.38900
O1292       O  0.17993868  0.55590582  0.10350726    -0.38900
O1293       O  0.18779781  0.67397466  0.01142503    -0.39600
O1294       O  0.18138288  0.61056589  0.00859373    -0.39600
C1295       C  0.39632607  0.65389377  0.04996118    -0.11900
C1296       C  0.40602684  0.63080580  0.06768856     0.05100
C1297       C  0.44542003  0.61938635  0.07047787    -0.07200
C1298       C  0.47403290  0.63664218  0.05821053    -0.07900
C1299       C  0.46454027  0.66293134  0.04187293    -0.02500
C1300       C  0.42487500  0.66942907  0.03691234     0.04300
N1301       N  0.41274425  0.69582883  0.02050010     0.66800
H1302       H  0.36654985  0.66276413  0.04712255     0.15700
H1303       H  0.50408197  0.63008669  0.06181284     0.15400
N1304       N  0.45701792  0.58972051  0.08537900     0.74500
O1305       O  0.40213209  0.68141663  0.00310799    -0.38900
O1306       O  0.90410309  0.74294120  0.03525408    -0.38900
O1307       O  0.45690048  0.55405106  0.07957425    -0.39600
O1308       O  0.47807684  0.59911486  0.10083171    -0.39600
C1309       C  0.16211761  0.82993006  0.06303232    -0.11900
C1310       C  0.16624429  0.78960138  0.05753333     0.05100
C1311       C  0.19619083  0.76737534  0.06733325    -0.07200
C1312       C  0.22033165  0.78451259  0.08244404    -0.07900
C1313       C  0.21577209  0.82429006  0.08806396    -0.02500
C1314       C  0.18690476  0.84735861  0.07794442     0.04300
N1315       N  0.18368509  0.88879623  0.08207170     0.66800
H1316       H  0.13959148  0.84800985  0.05571675     0.15700
H1317       H  0.24272633  0.76652354  0.08996757     0.15400
N1318       N  0.20035359  0.72628991  0.06353685     0.74500
O1319       O  0.20463452  0.91215059  0.07212483    -0.38900
O1320       O  0.16660038  0.90087782  0.09834714    -0.38900
O1321       O  0.22103766  0.71401571  0.04860917    -0.39600
O1322       O  0.17924044  0.70293659  0.07329399    -0.39600
C1323       C  0.45248249  0.85009138  0.05522712    -0.11900
C1324       C  0.46138742  0.80957362  0.05639838     0.05100
C1325       C  0.44465252  0.78669121  0.07220606    -0.07200
C1326       C  0.41846544  0.80397234  0.08593369    -0.07900
C1327       C  0.40955967  0.84427348  0.08502693    -0.02500
C1328       C  0.42666507  0.86773828  0.06947073     0.04300
N1329       N  0.41804969  0.90904904  0.06772834     0.66800
H1330       H  0.46530104  0.86793637  0.04313998     0.15700
H1331       H  0.40547888  0.78579485  0.09784632     0.15400
N1332       N  0.98569347  0.77333179  0.08448761     0.74500
O1333       O  0.39560147  0.92090399  0.05319510    -0.38900
O1334       O  0.44098090  0.93317201  0.07596081    -0.38900
O1335       O  0.01335753  0.78082675  0.09680122    -0.39600
O1336       O  0.97125344  0.73945161  0.08493487    -0.39600
C1337       C  0.18665903  0.88102402  0.96090221    -0.11900
C1338       C  0.21679126  0.85948361  0.95120799     0.05100
C1339       C  0.22136835  0.81885837  0.95599930    -0.07200
C1340       C  0.19414973  0.80040703  0.96869312    -0.07900
C1341       C  0.16202300  0.82108443  0.97727180    -0.02500
C1342       C  0.15975001  0.86246190  0.97399060     0.04300
N1343       N  0.13186137  0.88655371  0.98460661     0.66800
H1344       H  0.18405735  0.91261113  0.95831458     0.15700
H1345       H  0.19781473  0.76889694  0.97122050     0.15400
N1346       N  0.25408998  0.79598589  0.94868983     0.74500
O1347       O  0.14123333  0.90230430  0.00188700    -0.38900
O1348       O  0.10378394  0.90109105  0.97424849    -0.38900
O1349       O  0.27337809  0.77487124  0.96152308    -0.39600
O1350       O  0.26613340  0.79952450  0.93013838    -0.39600
C1351       C  0.46001438  0.87878950  0.97531381    -0.11900
C1352       C  0.47907575  0.84935477  0.96326334     0.05100
C1353       C  0.46915719  0.84603231  0.94165945    -0.07200
C1354       C  0.43770967  0.86738212  0.93348569    -0.07900
C1355       C  0.41658706  0.89409958  0.94586199    -0.02500
C1356       C  0.42999278  0.90243239  0.96633471     0.04300
N1357       N  0.41681222  0.93750846  0.97681631     0.66800
H1358       H  0.46885454  0.88383416  0.99147758     0.15700
H1359       H  0.42861300  0.86164157  0.91741965     0.15400
N1360       N  0.99264748  0.82295651  0.92800455     0.74500
O1361       O  0.38449156  0.93832935  0.98566309    -0.38900
O1362       O  0.43272466  0.96970620  0.97267061    -0.38900
O1363       O  0.97700801  0.79171522  0.92168690    -0.39600
O1364       O  0.02020236  0.83656768  0.91770846    -0.39600
C1365       C  0.18188238  0.65787060  0.93273736    -0.11900
C1366       C  0.19455607  0.68879702  0.92010022     0.05100
C1367       C  0.17316726  0.72484423  0.91988453    -0.07200
C1368       C  0.14206432  0.73003424  0.93340225    -0.07900
C1369       C  0.13041122  0.69986439  0.94698919    -0.02500
C1370       C  0.14977445  0.66273678  0.94578351     0.04300
N1371       N  0.13647166  0.62902414  0.95670922     0.66800
H1372       H  0.19652314  0.62927240  0.93203976     0.15700
H1373       H  0.12744602  0.75865530  0.93343947     0.15400
N1374       N  0.18139956  0.75623264  0.90566637     0.74500
O1375       O  0.11201527  0.60757806  0.94768590    -0.38900
O1376       O  0.15809291  0.61363205  0.97058264    -0.38900
O1377       O  0.16033007  0.76068156  0.88950223    -0.39600
O1378       O  0.19802285  0.78615941  0.91281287    -0.39600
C1379       C  0.39033914  0.72113946  0.93372398    -0.11900
C1380       C  0.39566543  0.68285931  0.92606739     0.05100
C1381       C  0.42624660  0.65912319  0.93423022    -0.07200
C1382       C  0.45304667  0.67555045  0.94850343    -0.07900
C1383       C  0.44717777  0.71414978  0.95638751    -0.02500
C1384       C  0.41385688  0.73577843  0.94968177     0.04300
N1385       N  0.90363758  0.77472810  0.95776344     0.66800
H1386       H  0.36588489  0.73894627  0.92825328     0.15700
H1387       H  0.47665328  0.65731128  0.95459192     0.15400
N1388       N  0.42737029  0.61756010  0.93013003     0.74500
O1389       O  0.89857310  0.80296064  0.94507118    -0.38900
O1390       O  0.88601880  0.77609598  0.97499980    -0.38900
O1391       O  0.44706415  0.60392887  0.91512516    -0.39600
O1392       O  0.40318982  0.59582034  0.93885422    -0.39600
C1393       C  0.45822303  0.91688262  0.21887817    -0.11900
C1394       C  0.48568377  0.93720069  0.20721274     0.05100
C1395       C  0.47961331  0.94110545  0.18528578    -0.07200
C1396       C  0.44538950  0.92858842  0.17607580    -0.07900
C1397       C  0.41834487  0.90727471  0.18739302    -0.02500
C1398       C  0.42529745  0.90109392  0.20916939     0.04300
N1399       N  0.40019977  0.87820072  0.22166415     0.66800
H1400       H  0.46198664  0.91353707  0.23573190     0.15700
H1401       H  0.44098556  0.93366310  0.15937608     0.15400
N1402       N  0.92222423  0.97582397  0.22771304     0.74500
O1403       O  0.37833400  0.89581459  0.23452437    -0.38900
O1404       O  0.40901697  0.84234316  0.22489526    -0.38900
O1405       O  0.90804655  0.00849004  0.22150797    -0.39600
O1406       O  0.91047363  0.96201180  0.24483595    -0.39600
C1407       C  0.19780093  0.88462864  0.20546683    -0.11900
C1408       C  0.21366963  0.90530499  0.18863376     0.05100
C1409       C  0.19829500  0.94257587  0.18323383    -0.07200
C1410       C  0.16747915  0.95859651  0.19450301    -0.07900
C1411       C  0.15024806  0.93801775  0.21113044    -0.02500
C1412       C  0.16630609  0.90061831  0.21676561     0.04300
N1413       N  0.15037800  0.87767009  0.23318190     0.66800
H1414       H  0.20941099  0.85563962  0.20956324     0.15700
H1415       H  0.15736295  0.98788371  0.19024771     0.15400
N1416       N  0.21315566  0.96397078  0.16582430     0.74500
O1417       O  0.12637541  0.85160707  0.22836176    -0.38900
O1418       O  0.16847495  0.87478283  0.25045779    -0.38900
O1419       O  0.20027269  0.95741716  0.14753776    -0.39600
O1420       O  0.21615033  0.48245099  0.15417137    -0.39600
C1421       C  0.42230997  0.58918016  0.21400350    -0.11900
C1422       C  0.45999965  0.57823988  0.20900837     0.05100
C1423       C  0.47219075  0.58271879  0.18804752    -0.07200
C1424       C  0.44559397  0.59062069  0.17211610    -0.07900
C1425       C  0.40777771  0.60092686  0.17681929    -0.02500
C1426       C  0.39711414  0.60414011  0.19832569     0.04300
N1427       N  0.36241457  0.62461244  0.20450004     0.66800
H1428       H  0.41338819  0.58825496  0.23025074     0.15700
H1429       H  0.45504637  0.58893943  0.15595428     0.15400
N1430       N  0.01279359  0.59219394  0.18632843     0.74500
O1431       O  0.34862512  0.61839060  0.22243705    -0.38900
O1432       O  0.35144869  0.65522965  0.19460380    -0.38900
O1433       O  0.02449135  0.06334428  0.16956106    -0.39600
O1434       O  0.02750563  0.56166022  0.17806828    -0.39600
C1435       C  0.19985160  0.58133910  0.21624152    -0.11900
C1436       C  0.16243721  0.57272870  0.21020540     0.05100
C1437       C  0.15174591  0.57549348  0.18875849    -0.07200
C1438       C  0.17911324  0.58389727  0.17378325    -0.07900
C1439       C  0.21663631  0.59342255  0.17959461    -0.02500
C1440       C  0.22658920  0.59309657  0.20140787     0.04300
N1441       N  0.26331275  0.60448148  0.20920613     0.66800
H1442       H  0.20821609  0.57978151  0.23271840     0.15700
H1443       H  0.17051874  0.58273346  0.15736296     0.15400
N1444       N  0.11307672  0.57189072  0.18158059     0.74500
O1445       O  0.26773084  0.64033473  0.21392963    -0.38900
O1446       O  0.28361191  0.57863664  0.21874058    -0.38900
O1447       O  0.09666852  0.60295123  0.17477417    -0.39600
O1448       O  0.11145374  0.03050645  0.16944739    -0.39600
C1449       C  0.12205720  0.65476703  0.70233297    -0.11900
C1450       C  0.15534375  0.64764016  0.69081764     0.05100
C1451       C  0.17503133  0.61097921  0.69277138    -0.07200
C1452       C  0.15832759  0.58021106  0.70401338    -0.07900
C1453       C  0.12389754  0.58685430  0.71499660    -0.02500
C1454       C  0.10720403  0.62562568  0.71519244     0.04300
N1455       N  0.07447775  0.63617674  0.72761065     0.66800
H1456       H  0.10736081  0.68331111  0.70126786     0.15700
H1457       H  0.17250796  0.55137700  0.70448043     0.15400
N1458       N  0.21260928  0.60558599  0.68413677     0.74500
O1459       O  0.07994336  0.64486109  0.74669468    -0.38900
O1460       O  0.04496988  0.65057659  0.71844408    -0.38900
O1461       O  0.24076481  0.62238156  0.69280109    -0.39600
O1462       O  0.21654137  0.59056824  0.66609495    -0.39600
C1463       C  0.19717781  0.86376934  0.70891443    -0.11900
C1464       C  0.17453812  0.85101028  0.69181274     0.05100
C1465       C  0.13688160  0.86655345  0.68951702    -0.07200
C1466       C  0.12209314  0.89325990  0.70443079    -0.07900
C1467       C  0.14327136  0.90394692  0.72255523    -0.02500
C1468       C  0.18188458  0.88989873  0.72427699     0.04300
N1469       N  0.20582638  0.90096310  0.74158678     0.66800
H1470       H  0.22640482  0.85232213  0.71073794     0.15700
H1471       H  0.09288248  0.90402491  0.70223864     0.15400
N1472       N  0.11242230  0.85321885  0.67279025     0.74500
O1473       O  0.21071374  0.87707844  0.75664635    -0.38900
O1474       O  0.23027036  0.92744603  0.73883310    -0.38900
O1475       O  0.09757432  0.81960088  0.67397175    -0.39600
O1476       O  0.11213159  0.87102660  0.65537105    -0.39600
C1477       C  0.99359020  0.61755501  0.67876639    -0.11900
C1478       C  0.46164620  0.63713335  0.68207205     0.05100
C1479       C  0.44231259  0.62874208  0.70097393    -0.07200
C1480       C  0.45917849  0.60220000  0.71553280    -0.07900
C1481       C  0.99133265  0.58366025  0.71255488    -0.02500
C1482       C  0.00783139  0.58803385  0.69247220     0.04300
N1483       N  0.03871836  0.56283085  0.68556284     0.66800
H1484       H  0.00837689  0.62261076  0.66412756     0.15700
H1485       H  0.44563936  0.59864789  0.73046960     0.15400
N1486       N  0.40520943  0.64568162  0.70550041     0.74500
O1487       O  0.03117292  0.52787079  0.68025075    -0.38900
O1488       O  0.06883055  0.57809828  0.67860538    -0.38900
O1489       O  0.37585299  0.62730965  0.69944268    -0.39600
O1490       O  0.40186477  0.66939246  0.72075453    -0.39600
C1491       C  0.01194322  0.83852463  0.69687330    -0.11900
C1492       C  0.49000399  0.84051256  0.68294526     0.05100
C1493       C  0.46890498  0.87590592  0.68627899    -0.07200
C1494       C  0.48344320  0.90466444  0.69987236    -0.07900
C1495       C  0.00774287  0.90339692  0.71310383    -0.02500
C1496       C  0.02515452  0.86527491  0.71181155     0.04300
N1497       N  0.05019124  0.85039596  0.72812340     0.66800
H1498       H  0.02699787  0.81040618  0.69484969     0.15700
H1499       H  0.46781135  0.93247623  0.70185083     0.15400
N1500       N  0.43157708  0.88154949  0.67704919     0.74500
O1501       O  0.03649846  0.84680728  0.74631245    -0.38900
O1502       O  0.07933589  0.82949051  0.72333067    -0.38900
O1503       O  0.40369754  0.86190634  0.68361027    -0.39600
O1504       O  0.42758637  0.90189429  0.66060668    -0.39600
C1505       C  0.33592581  0.61414272  0.57119143    -0.11900
C1506       C  0.35701407  0.59627054  0.55472090     0.05100
C1507       C  0.39405191  0.61085488  0.55031315    -0.07200
C1508       C  0.40976887  0.64064234  0.56299217    -0.07900
C1509       C  0.38885745  0.65721918  0.57961036    -0.02500
C1510       C  0.35136618  0.64462296  0.58335688     0.04300
N1511       N  0.32896416  0.66276925  0.59961118     0.66800
H1512       H  0.30694997  0.60491988  0.57444051     0.15700
H1513       H  0.43872319  0.65043796  0.56007581     0.15400
N1514       N  0.41662775  0.59549996  0.53342390     0.74500
O1515       O  0.31456655  0.69684957  0.59660097    -0.38900
O1516       O  0.33241504  0.65006954  0.61819393    -0.38900
O1517       O  0.41726467  0.61468640  0.51643184    -0.39600
O1518       O  0.44404482  0.57159851  0.53761017    -0.39600
C1519       C  0.38963310  0.92808669  0.58040481    -0.11900
C1520       C  0.38963734  0.92493305  0.55855369     0.05100
C1521       C  0.40876151  0.89176231  0.54941995    -0.07200
C1522       C  0.42465566  0.86171975  0.56213749    -0.07900
C1523       C  0.42148139  0.86306666  0.58400990    -0.02500
C1524       C  0.40599870  0.89828526  0.59312543     0.04300
N1525       N  0.40743034  0.90557389  0.61514953     0.66800
H1526       H  0.37611106  0.95368578  0.58776680     0.15700
H1527       H  0.43808975  0.83611218  0.55473508     0.15400
N1528       N  0.41175375  0.88697854  0.52726330     0.74500
O1529       O  0.43147111  0.93031274  0.62172512    -0.38900
O1530       O  0.37741447  0.90041587  0.62566919    -0.38900
O1531       O  0.44468268  0.89034954  0.51945749    -0.39600
O1532       O  0.38748309  0.86591785  0.51779697    -0.39600
C1533       C  0.22715865  0.57793097  0.57159820    -0.11900
C1534       C  0.21757171  0.58901716  0.55092982     0.05100
C1535       C  0.19531062  0.62389603  0.54768166    -0.07200
C1536       C  0.18527469  0.64789736  0.56482544    -0.07900
C1537       C  0.19923865  0.63940990  0.58514030    -0.02500
C1538       C  0.21896754  0.60294589  0.58861785     0.04300
N1539       N  0.23389682  0.59216515  0.60888136     0.66800
H1540       H  0.24426257  0.55123066  0.57442082     0.15700
H1541       H  0.16897642  0.67510335  0.56199333     0.15400
N1542       N  0.18235515  0.63570716  0.52727017     0.74500
O1543       O  0.21857713  0.56422504  0.61861084    -0.38900
O1544       O  0.26792388  0.60120842  0.61365397    -0.38900
O1545       O  0.14706387  0.63211497  0.52291458    -0.39600
O1546       O  0.20110443  0.66140582  0.51762264    -0.39600
C1547       C  0.28794890  0.87554894  0.56830098    -0.11900
C1548       C  0.26197698  0.88477567  0.55182527     0.05100
C1549       C  0.22390546  0.87108765  0.55300185    -0.07200
C1550       C  0.21325587  0.84740051  0.57000228    -0.07900
C1551       C  0.23905156  0.83928567  0.58668055    -0.02500
C1552       C  0.27641218  0.85439987  0.58595354     0.04300
N1553       N  0.30190877  0.85120397  0.60366277     0.66800
H1554       H  0.31676571  0.88709567  0.56817680     0.15700
H1555       H  0.18441084  0.83585006  0.57041544     0.15400
N1556       N  0.19554676  0.88123996  0.53736583     0.74500
O1557       O  0.30102376  0.87816086  0.61739311    -0.38900
O1558       O  0.33087426  0.82816735  0.60285067    -0.38900
O1559       O  0.18496194  0.85509006  0.52449091    -0.39600
O1560       O  0.17377570  0.91099133  0.54043048    -0.39600
C1561       C  0.15867456  0.62032600  0.29507659    -0.11900
C1562       C  0.11878974  0.61746247  0.29145540     0.05100
C1563       C  0.09453080  0.64853931  0.29891843    -0.07200
C1564       C  0.10940084  0.67795280  0.31202610    -0.07900
C1565       C  0.14863446  0.67890876  0.31703904    -0.02500
C1566       C  0.17376305  0.65087876  0.30749412     0.04300
N1567       N  0.21439751  0.65153233  0.31123443     0.66800
H1568       H  0.17823876  0.59763631  0.28916981     0.15700
H1569       H  0.08980315  0.69955245  0.31896375     0.15400
N1570       N  0.05447559  0.65061880  0.29385111     0.74500
O1571       O  0.22944822  0.62779373  0.32439860    -0.38900
O1572       O  0.23547902  0.66670838  0.29753394    -0.38900
O1573       O  0.03084658  0.65075608  0.30871533    -0.39600
O1574       O  0.04401958  0.66516455  0.27638376    -0.39600
C1575       C  0.14802291  0.91552742  0.34201858    -0.11900
C1576       C  0.17174836  0.88460440  0.33427161     0.05100
C1577       C  0.18952181  0.89005564  0.31462624    -0.07200
C1578       C  0.17928552  0.92290022  0.30214763    -0.07900
C1579       C  0.15288159  0.95211449  0.30910552    -0.02500
C1580       C  0.13970686  0.94965868  0.33003132     0.04300
N1581       N  0.12014005  0.98230291  0.33986784     0.66800
H1582       H  0.13573833  0.91317648  0.35754477     0.15700
H1583       H  0.19124378  0.92466755  0.28652176     0.15400
N1584       N  0.21863960  0.86314925  0.30721456     0.74500
O1585       O  0.08449037  0.98059678  0.34322822    -0.38900
O1586       O  0.13981379  0.00625249  0.35050691    -0.38900
O1587       O  0.21066497  0.83993768  0.29231005    -0.39600
O1588       O  0.25346289  0.87107022  0.31075490    -0.39600
C1589       C  0.24776977  0.59398903  0.43211791    -0.11900
C1590       C  0.22591264  0.58267949  0.44945735     0.05100
C1591       C  0.18946414  0.60089667  0.45241044    -0.07200
C1592       C  0.17638861  0.63075223  0.43851418    -0.07900
C1593       C  0.19970452  0.64389201  0.42214336    -0.02500
C1594       C  0.23530385  0.62429376  0.41866919     0.04300
N1595       N  0.25990109  0.63560384  0.40196086     0.66800
H1596       H  0.27589636  0.58040686  0.42949841     0.15700
H1597       H  0.14841239  0.64474124  0.44094002     0.15400
N1598       N  0.16514177  0.58954792  0.46912630     0.74500
O1599       O  0.28573093  0.66041684  0.40560618    -0.38900
O1600       O  0.26278374  0.61351930  0.38601162    -0.38900
O1601       O  0.15568574  0.61525149  0.48256828    -0.39600
O1602       O  0.14409174  0.55996805  0.46659580    -0.39600
C1603       C  0.24393547  0.83415266  0.44945376    -0.11900
C1604       C  0.20852513  0.84433603  0.44020139     0.05100
C1605       C  0.18782876  0.87761277  0.44762772    -0.07200
C1606       C  0.20572813  0.90392416  0.46163028    -0.07900
C1607       C  0.24309623  0.89551669  0.46958440    -0.02500
C1608       C  0.26042074  0.85811464  0.46474616     0.04300
N1609       N  0.29460342  0.84346380  0.47510836     0.66800
H1610       H  0.25918174  0.80741287  0.44459452     0.15700
H1611       H  0.19069504  0.93104577  0.46599713     0.15400
N1612       N  0.14855371  0.88412056  0.44135735     0.74500
O1613       O  0.32646551  0.84604598  0.46593220    -0.38900
O1614       O  0.29130032  0.81785814  0.48935027    -0.38900
O1615       O  0.12308688  0.86213695  0.44869764    -0.39600
O1616       O  0.14061740  0.90529962  0.42552074    -0.39600
C1617       C  0.48873292  0.57901697  0.33173693    -0.11900
C1618       C  0.47568906  0.57297912  0.31097203     0.05100
C1619       C  0.44748432  0.59977084  0.30257421    -0.07200
C1620       C  0.43548193  0.63297599  0.31427422    -0.07900
C1621       C  0.45123670  0.64059293  0.33420613    -0.02500
C1622       C  0.47729300  0.61256738  0.34320698     0.04300
N1623       N  0.49484142  0.61915987  0.36331556     0.66800
H1624       H  0.51019684  0.55914961  0.33869123     0.15700
H1625       H  0.41452698  0.65361623  0.30748890     0.15400
N1626       N  0.43132563  0.59462329  0.28203108     0.74500
O1627       O  0.48266940  0.60074420  0.37904570    -0.38900
O1628       O  0.52812065  0.63338027  0.36413315    -0.38900
O1629       O  0.39803621  0.58067910  0.28027849    -0.39600
O1630       O  0.44458580  0.61415821  0.26697163    -0.39600
C1631       C  0.50631111  0.85375025  0.31676581    -0.11900
C1632       C  0.46748088  0.84751069  0.32063914     0.05100
C1633       C  0.43945065  0.87012905  0.30953096    -0.07200
C1634       C  0.45063672  0.90086454  0.29607526    -0.07900
C1635       C  0.48988762  0.90878462  0.29291273    -0.02500
C1636       C  0.51772465  0.88311771  0.30276385     0.04300
N1637       N  0.55796964  0.88625868  0.29905126     0.66800
H1638       H  0.52809099  0.83605904  0.32499155     0.15700
H1639       H  0.42853670  0.91912668  0.28851764     0.15400
N1640       N  0.39950648  0.86261481  0.31237584     0.74500
O1641       O  0.57848699  0.90278280  0.31281783    -0.38900
O1642       O  0.06991624  0.87858475  0.29371198    -0.38900
O1643       O  0.38072384  0.88255535  0.32571889    -0.39600
O1644       O  0.38591272  0.83071938  0.30553198    -0.39600
C1645       C  0.37564223  0.60641024  0.45137241    -0.11900
C1646       C  0.34297712  0.61876444  0.46241465     0.05100
C1647       C  0.32762901  0.65737164  0.45905475    -0.07200
C1648       C  0.34382529  0.68178438  0.44396364    -0.07900
C1649       C  0.37662333  0.66954268  0.43276565    -0.02500
C1650       C  0.39319037  0.63166419  0.43710953     0.04300
N1651       N  0.42835299  0.61853540  0.42767020     0.66800
H1652       H  0.38828772  0.57731546  0.45423179     0.15700
H1653       H  0.33060159  0.71055801  0.44093237     0.15400
N1654       N  0.29549740  0.67225563  0.47079553     0.74500
O1655       O  0.45966217  0.62551261  0.43708663    -0.38900
O1656       O  0.42747486  0.59036040  0.41465203    -0.38900
O1657       O  0.30137836  0.69173681  0.48743131    -0.39600
O1658       O  0.26201423  0.66063261  0.46658495    -0.39600
C1659       C  0.42784061  0.88944872  0.43812354    -0.11900
C1660       C  0.40304622  0.87162176  0.42366285     0.05100
C1661       C  0.36489077  0.88571119  0.42171676    -0.07200
C1662       C  0.35161815  0.91655138  0.43458056    -0.07900
C1663       C  0.37555130  0.93359315  0.45008661    -0.02500
C1664       C  0.41452361  0.91999572  0.45141233     0.04300
N1665       N  0.44098343  0.93551539  0.46642233     0.66800
H1666       H  0.45743766  0.87883475  0.43950432     0.15700
H1667       H  0.32156214  0.92553421  0.43313422     0.15400
N1668       N  0.33882039  0.86746208  0.40730364     0.74500
O1669       O  0.45182659  0.91339678  0.48134417    -0.38900
O1670       O  0.46317255  0.96232523  0.46064377    -0.38900
O1671       O  0.32293718  0.83579282  0.41247176    -0.39600
O1672       O  0.33833497  0.87788458  0.38825586    -0.39600
N1673       N  0.90498666  0.26658092  0.40761634    -0.36200
N1674       N  0.92611100  0.32029034  0.37318188    -0.56800
N1675       N  0.93220165  0.25401805  0.34514539    -0.36200
N1676       N  0.91566014  0.20016493  0.38092179    -0.56800
C1677       C  0.91213115  0.30016311  0.41832048     0.27300
C1678       C  0.90394230  0.23672372  0.42182074     0.27300
C1679       C  0.94655811  0.28255569  0.33266303     0.27300
C1680       C  0.94433964  0.21857778  0.33746283     0.27300
C1681       C  0.91726111  0.34717974  0.38819894     0.36000
C1682       C  0.93060024  0.34077362  0.35512536     0.36000
C1683       C  0.89449923  0.18348412  0.39612672     0.36000
C1684       C  0.91330952  0.17625034  0.36401656     0.36000
C1685       C  0.91572016  0.29171816  0.43960717    -0.21500
C1686       C  0.91105520  0.25159893  0.44178778    -0.21500
C1687       C  0.96666240  0.26492791  0.31632340    -0.21500
C1688       C  0.96569135  0.22472541  0.31949726    -0.21500
C1689       C  0.91702238  0.38496103  0.37979088    -0.22600
C1690       C  0.92583103  0.38094957  0.35893143    -0.22600
C1691       C  0.87755006  0.14954499  0.38854317    -0.22600
C1692       C  0.89044472  0.14432639  0.36833497    -0.22600
C1693       C  0.91115884  0.33862490  0.40965518    -0.17900
C1694       C  0.89339095  0.19731674  0.41711930    -0.17900
C1695       C  0.93465820  0.18095599  0.34555296    -0.17900
C1696       C  0.94198072  0.32400289  0.33566131    -0.17900
H1697       H  0.92061464  0.31240735  0.45230849     0.15000
H1698       H  0.91186118  0.23545441  0.45646751     0.15000
H1699       H  0.98100564  0.27938059  0.30353443     0.15000
H1700       H  0.97859389  0.20268401  0.30935512     0.15000
H1701       H  0.91188492  0.41266085  0.38793818     0.13300
H1702       H  0.92891424  0.40504453  0.34796473     0.13300
H1703       H  0.85869556  0.13005742  0.39684769     0.13300
H1704       H  0.88372101  0.11999685  0.35794353     0.13300
H1705       H  0.89575683  0.26536880  0.39200409     0.26500
H1706       H  0.91265831  0.25815643  0.35724968     0.26500
N1707       N  0.68101719  0.25523653  0.41289003    -0.36200
N1708       N  0.66587995  0.20255230  0.37812274    -0.56800
N1709       N  0.66508973  0.27017779  0.34922342    -0.36200
N1710       N  0.67632656  0.32350933  0.38477923    -0.56800
C1711       C  0.67816553  0.22112370  0.42376908     0.27300
C1712       C  0.68249213  0.28484979  0.42714113     0.27300
C1713       C  0.65198526  0.24161773  0.33608752     0.27300
C1714       C  0.65737488  0.30577992  0.33996037     0.27300
C1715       C  0.67158812  0.17504462  0.39338674     0.36000
C1716       C  0.66052933  0.18259142  0.35990551     0.36000
C1717       C  0.69226889  0.34026871  0.40203118     0.36000
C1718       C  0.68222736  0.34858640  0.36865605     0.36000
C1719       C  0.67740292  0.22922048  0.44515423    -0.21500
C1720       C  0.67959850  0.26952588  0.44726830    -0.21500
C1721       C  0.63670482  0.25950896  0.31807432    -0.21500
C1722       C  0.63921080  0.29974689  0.32077050    -0.21500
C1723       C  0.66809821  0.13752531  0.38504206    -0.22600
C1724       C  0.66042987  0.14225276  0.36399913    -0.22600
C1725       C  0.70810966  0.37617874  0.39681170    -0.22600
C1726       C  0.70146474  0.38156751  0.37571480    -0.22600
C1727       C  0.67967779  0.18289377  0.41486236    -0.17900
C1728       C  0.69203314  0.32421924  0.42257224    -0.17900
C1729       C  0.66858316  0.34327455  0.34785140    -0.17900
C1730       C  0.65430634  0.19993881  0.33972515    -0.17900
H1731       H  0.67629866  0.20837544  0.45799443     0.15000
H1732       H  0.68090315  0.28551396  0.46201825     0.15000
H1733       H  0.62491123  0.24547183  0.30422314     0.15000
H1734       H  0.62947216  0.32195695  0.30957415     0.15000
H1735       H  0.67026898  0.10962882  0.39332211     0.13300
H1736       H  0.65525019  0.11839197  0.35306344     0.13300
H1737       H  0.72301012  0.39642317  0.40710561     0.13300
H1738       H  0.71016576  0.40670222  0.36655121     0.13300
H1739       H  0.68771834  0.25754605  0.39752324     0.26500
H1740       H  0.68164548  0.26551274  0.36232170     0.26500
O1741       O  0.87027656  0.46786698  0.48309181    -0.79800
O1742       O  0.84477429  0.06392128  0.52401418    -0.79800
O1743       O  0.82487366  0.05552416  0.47557378    -0.79800
O1744       O  0.83442670  0.46604755  0.55187816    -0.79800
O1745       O  0.80687882  0.10774953  0.49437489    -0.79900
O1746       O  0.87649588  0.46369002  0.52625445    -0.79800
O1747       O  0.81114308  0.04777412  0.55173685    -0.79800
O1748       O  0.82256167  0.47665049  0.46140322    -0.79800
C1749       C  0.85631360  0.46345548  0.46488933     1.09900
C1750       C  0.83770283  0.06792418  0.54348147     1.09800
C1751       C  0.82470360  0.09365326  0.47880830     1.09900
C1752       C  0.86806198  0.45713124  0.54512458     1.09800
O1753       O  0.81165023  0.41233912  0.52764999    -0.79800
O1754       O  0.74769247  0.06018134  0.48678265    -0.79900
O1755       O  0.75351125  0.46483080  0.48227295    -0.79800
O1756       O  0.73464410  0.03225619  0.53414766    -0.79800
O1757       O  0.76587932  0.08475508  0.52643083    -0.79800
O1758       O  0.80132995  0.42082422  0.48552452    -0.79800
O1759       O  0.75946919  0.44787108  0.53360653    -0.79700
O1760       O  0.76001613  0.02825241  0.45720583    -0.79800
Co1761     Co  0.83850419  0.44537453  0.50570652     1.51500
Co1762     Co  0.79904176  0.05743128  0.50523102     1.51700
Co1763     Co  0.78464812  0.01010797  0.48200077     1.51600
Co1764     Co  0.78115233  0.00021994  0.54202240     1.51500
O1765       O  0.80080472  0.99886675  0.51178099    -1.41700
C1766       C  0.77825570  0.41584090  0.53554877     1.09800
C1767       C  0.74254873  0.05610004  0.46664911     1.09900
C1768       C  0.76677689  0.42960087  0.48017178     1.09900
C1769       C  0.73754376  0.06925126  0.53506407     1.09800
N1770       N  0.95754688  0.24623090  0.66284130    -0.36200
N1771       N  0.92845993  0.19356924  0.63242372    -0.56800
N1772       N  0.92203503  0.25971622  0.60125987    -0.36200
N1773       N  0.94904544  0.31215156  0.63267772    -0.56800
C1774       C  0.95367281  0.21418269  0.67532332     0.27300
C1775       C  0.96150441  0.27798898  0.67547290     0.27300
C1776       C  0.89980079  0.23185458  0.59234981     0.27300
C1777       C  0.91107016  0.29529672  0.59294914     0.27300
C1778       C  0.94070779  0.16624736  0.64676032     0.36000
C1779       C  0.92098493  0.17386882  0.61439508     0.36000
C1780       C  0.97240074  0.32725545  0.64744910     0.36000
C1781       C  0.95257165  0.33505092  0.61552724     0.36000
C1782       C  0.47148781  0.21906571  0.69426024    -0.21500
C1783       C  0.47371348  0.25955903  0.69487157    -0.21500
C1784       C  0.87475763  0.24966604  0.57788027    -0.21500
C1785       C  0.88168072  0.28971651  0.57835391    -0.21500
C1786       C  0.94016166  0.12887580  0.63783584    -0.22600
C1787       C  0.92807331  0.13372768  0.61735016    -0.22600
C1788       C  0.99173827  0.35937160  0.63952759    -0.22600
C1789       C  0.97917417  0.36420375  0.61910572    -0.22600
C1790       C  0.95054462  0.17467236  0.66804917    -0.17900
C1791       C  0.97168793  0.31603542  0.66867213    -0.17900
C1792       C  0.92825289  0.33208542  0.59789230    -0.17900
C1793       C  0.90300192  0.19064265  0.59625683    -0.17900
H1794       H  0.47660542  0.19978562  0.70756499     0.15000
H1795       H  0.48039914  0.27686273  0.70871706     0.15000
H1796       H  0.85349542  0.23531609  0.56809746     0.15000
H1797       H  0.86664094  0.31207447  0.56906022     0.15000
H1798       H  0.94688761  0.10083732  0.64530138     0.13300
H1799       H  0.92372842  0.11015170  0.60609904     0.13300
H1800       H  0.01161454  0.37817633  0.64786878     0.13300
H1801       H  0.98742581  0.38728981  0.60840749     0.13300
H1802       H  0.96282213  0.24599697  0.64679538     0.26500
H1803       H  0.94582892  0.25386766  0.61097696     0.26500
N1804       N  0.70344912  0.24743422  0.60629776    -0.36200
N1805       N  0.67575678  0.19042331  0.63564232    -0.56800
N1806       N  0.67472045  0.25082830  0.66847621    -0.36200
N1807       N  0.70689637  0.30740307  0.63965249    -0.56800
C1808       C  0.70990716  0.21294919  0.59587447     0.27300
C1809       C  0.72676983  0.27449084  0.59782611     0.27300
C1810       C  0.66945325  0.21785758  0.68011613     0.27300
C1811       C  0.68091489  0.28119454  0.68194014     0.27300
C1812       C  0.66913153  0.17090033  0.61750219     0.36000
C1813       C  0.65578538  0.17190180  0.65055231     0.36000
C1814       C  0.71561612  0.33000161  0.62284724     0.36000
C1815       C  0.69847473  0.33253787  0.65566634     0.36000
C1816       C  0.73760567  0.21834785  0.58066043    -0.21500
C1817       C  0.74807671  0.25717272  0.58182634    -0.21500
C1818       C  0.67229975  0.22745138  0.70126623    -0.21500
C1819       C  0.67845639  0.26740806  0.70243032    -0.21500
C1820       C  0.64388189  0.14044915  0.62068547    -0.22600
C1821       C  0.63557241  0.14089129  0.64177149    -0.22600
C1822       C  0.71342528  0.36958168  0.62831352    -0.22600
C1823       C  0.70357074  0.37116379  0.64917866    -0.22600
C1824       C  0.69000718  0.17733510  0.59908025    -0.17900
C1825       C  0.72731629  0.31513832  0.60298513    -0.17900
C1826       C  0.68651061  0.32124652  0.67611444    -0.17900
C1827       C  0.65896930  0.18021270  0.67222061    -0.17900
H1828       H  0.74931661  0.19659036  0.56985392     0.15000
H1829       H  0.76912752  0.27110683  0.57202629     0.15000
H1830       H  0.66912381  0.20803247  0.71460352     0.15000
H1831       H  0.68087001  0.28391932  0.71691268     0.15000
H1832       H  0.63386653  0.11923047  0.60921122     0.13300
H1833       H  0.61756324  0.12020222  0.64982576     0.13300
H1834       H  0.71848525  0.39476573  0.61834644     0.13300
H1835       H  0.70005315  0.39786873  0.65840885     0.13300
H1836       H  0.68134201  0.25342109  0.61683867     0.26500
H1837       H  0.67010408  0.25350350  0.65238374     0.26500
O1838       O  0.52669257  0.45649938  0.27993430    -0.79800
O1839       O  0.60093339  0.49103579  0.21070436    -0.79800
O1840       O  0.01480289  0.45911825  0.23689828    -0.79800
O1841       O  0.65139866  0.47988585  0.27551310    -0.79800
O1842       O  0.52142761  0.49433385  0.20804548    -0.79900
O1843       O  0.59658122  0.48756336  0.29403390    -0.79800
O1844       O  0.61316315  0.45485672  0.23921066    -0.79800
O1845       O  0.96842474  0.47269902  0.27047550    -0.79800
C1846       C  0.99200616  0.45046408  0.28097312     1.09900
C1847       C  0.61774415  0.46126590  0.21954718     1.09800
C1848       C  0.00669909  0.46776101  0.21795530     1.09900
C1849       C  0.63202106  0.47421469  0.29227624     1.09800
O1850       O  0.57412457  0.06828308  0.28393290    -0.79800
O1851       O  0.52837814  0.06917424  0.22570053    -0.79900
O1852       O  0.99543095  0.04903899  0.27798347    -0.79800
O1853       O  0.65334269  0.02820791  0.23658679    -0.79800
O1854       O  0.60675335  0.06829764  0.22540739    -0.79800
O1855       O  0.53271297  0.02033290  0.30783492    -0.79800
O1856       O  0.63179680  0.05224734  0.27437084    -0.79700
O1857       O  0.97691226  0.03261063  0.23618544    -0.79800
Co1858     Co  0.54727115  0.51397030  0.27980942     1.51500
Co1859     Co  0.56052618  0.53183505  0.21900146     1.51700
Co1860     Co  0.00953761  0.50209719  0.25815881     1.51600
Co1861     Co  0.61243958  0.50224861  0.25822597     1.51500
O1862       O  0.56070234  0.51708469  0.24928778    -1.41700
C1863       C  0.60879704  0.07685668  0.28266667     1.09800
C1864       C  0.98713679  0.06003938  0.22363980     1.09900
C1865       C  0.99849263  0.04925249  0.29827329     1.09900
C1866       C  0.64150731  0.05704252  0.22505220     1.09800
O1867       O  0.96037297  0.23866153  0.98951702    -0.79800
O1868       O  0.59975285  0.16651968  0.02080722    -0.79800
O1869       O  0.58784747  0.24297817  0.96279132    -0.79800
O1870       O  0.51913875  0.20685711  0.04743879    -0.79800
O1871       O  0.59935162  0.18758065  0.97909318    -0.79900
O1872       O  0.00271875  0.18669892  0.01324814    -0.79800
O1873       O  0.59839495  0.19725964  0.05089473    -0.79800
O1874       O  0.51179256  0.23002272  0.97167674    -0.79800
C1875       C  0.47450370  0.22811721  0.97386077     1.09900
C1876       C  0.60821697  0.16704210  0.04000964     1.09800
C1877       C  0.60209452  0.20837805  0.96268438     1.09900
C1878       C  0.99971948  0.18229395  0.03298925     1.09800
O1879       O  0.98136670  0.26101853  0.02770261    -0.79800
O1880       O  0.64121615  0.25684391  0.99028433    -0.79900
O1881       O  0.53647392  0.30276926  0.96249167    -0.79800
O1882       O  0.60561243  0.28181989  0.04313626    -0.79800
O1883       O  0.64619402  0.23687131  0.03099785    -0.79800
O1884       O  0.00671043  0.30017006  0.99133030    -0.79800
O1885       O  0.52885769  0.29250925  0.04308162    -0.79700
O1886       O  0.59887432  0.30636245  0.98967687    -0.79800
Co1887     Co  0.50837742  0.24318965  0.00378643     1.51500
Co1888     Co  0.61748712  0.21284476  0.00566457     1.51700
Co1889     Co  0.55475874  0.26907939  0.98402289     1.51600
Co1890     Co  0.56297681  0.24484670  0.04390975     1.51500
O1891       O  0.56543208  0.24077038  0.01155815    -1.41700
C1892       C  0.99521494  0.28430386  0.04101527     1.09800
C1893       C  0.63319412  0.29294562  0.98662041     1.09900
C1894       C  0.50837881  0.31527664  0.97329012     1.09900
C1895       C  0.63955469  0.26868381  0.04139187     1.09800
N1896       N  0.81469225  0.39091005  0.92958374    -0.36200
N1897       N  0.75799520  0.37573269  0.89549341    -0.56800
N1898       N  0.81385924  0.39596262  0.86416895    -0.36200
N1899       N  0.86956805  0.40826127  0.89719215    -0.56800
C1900       C  0.78806038  0.37044992  0.94016314     0.27300
C1901       C  0.84857522  0.38715616  0.94038472     0.27300
C1902       C  0.78543906  0.38095830  0.85205871     0.27300
C1903       C  0.84714402  0.39243761  0.85331990     0.27300
C1904       C  0.73554933  0.37352177  0.91280591     0.36000
C1905       C  0.73394981  0.38130100  0.87861333     0.36000
C1906       C  0.88802258  0.42120521  0.91455181     0.36000
C1907       C  0.88908142  0.42162573  0.88058775     0.36000
C1908       C  0.80472672  0.35577579  0.95861809    -0.21500
C1909       C  0.84300751  0.36519357  0.95839919    -0.21500
C1910       C  0.80073565  0.36739832  0.83326745    -0.21500
C1911       C  0.83980688  0.37437143  0.83412229    -0.21500
C1912       C  0.69712240  0.37691817  0.90676071    -0.22600
C1913       C  0.69616632  0.38289059  0.88538263    -0.22600
C1914       C  0.91909431  0.44374117  0.90899743    -0.22600
C1915       C  0.91955047  0.44440308  0.88739645    -0.22600
C1916       C  0.74909052  0.36535978  0.93369078    -0.17900
C1917       C  0.88426431  0.40280742  0.93415327    -0.17900
C1918       C  0.88293620  0.40818500  0.85983909    -0.17900
C1919       C  0.74577879  0.38239384  0.85714194    -0.17900
H1920       H  0.79117570  0.33950704  0.97100798     0.15000
H1921       H  0.86407196  0.35687121  0.97032542     0.15000
H1922       H  0.78521175  0.35439652  0.82021228     0.15000
H1923       H  0.86022762  0.36782136  0.82180015     0.15000
H1924       H  0.67202562  0.37544055  0.91658233     0.13300
H1925       H  0.67024048  0.38735483  0.87604957     0.13300
H1926       H  0.94076097  0.45572267  0.91944027     0.13300
H1927       H  0.94128073  0.45784534  0.87785820     0.13300
H1928       H  0.80939101  0.40799282  0.91622210     0.26500
H1929       H  0.80956444  0.41233125  0.87785374     0.26500
N1930       N  0.79549804  0.16862088  0.90205830    -0.36200
N1931       N  0.74194721  0.15789359  0.86784130    -0.56800
N1932       N  0.80285261  0.12571977  0.84119899    -0.36200
N1933       N  0.85715360  0.13516839  0.87652691    -0.56800
C1934       C  0.76185164  0.17264675  0.91252359     0.27300
C1935       C  0.82405727  0.16341825  0.91653563     0.27300
C1936       C  0.77133140  0.11351996  0.83042703     0.28500
C1937       C  0.83357716  0.10397855  0.83450231     0.27300
C1938       C  0.71781003  0.17641719  0.88136907     0.36000
C1939       C  0.72245754  0.15457230  0.84945518     0.36000
C1940       C  0.87773658  0.15360719  0.89168756     0.36000
C1941       C  0.88119701  0.12966719  0.86016353     0.36000
C1942       C  0.76936397  0.17036034  0.93401207    -0.21500
C1943       C  0.80855332  0.16443429  0.93651692    -0.21500
C1944       C  0.78238879  0.08433391  0.81623046    -0.21500
C1945       C  0.82173872  0.07844133  0.81873671    -0.21500
C1946       C  0.68287901  0.18487187  0.87142607    -0.22600
C1947       C  0.68622219  0.17223137  0.85110951    -0.22600
C1948       C  0.91473547  0.16034041  0.88478787    -0.22600
C1949       C  0.91706766  0.14469745  0.86488854    -0.22600
C1950       C  0.72500851  0.18045348  0.90318183    -0.17900
C1951       C  0.86397223  0.16229097  0.91205509    -0.17900
C1952       C  0.87207419  0.10816677  0.84179289    -0.17900
C1953       C  0.73312990  0.12856130  0.83303795    -0.17900
H1954       H  0.74899454  0.17358700  0.94667746     0.15000
H1955       H  0.82400688  0.16215242  0.95136876     0.15000
H1956       H  0.76403878  0.06885777  0.80523901     0.15000
H1957       H  0.83952976  0.05757256  0.81006099     0.15000
H1958       H  0.65654725  0.19609220  0.87827612     0.13300
H1959       H  0.66323231  0.17266933  0.83945552     0.13300
H1960       H  0.93782491  0.17450483  0.89329750     0.13300
H1961       H  0.94227374  0.14427290  0.85502882     0.13300
H1962       H  0.79959029  0.17407941  0.88618025     0.26500
H1963       H  0.80399869  0.14962916  0.85144998     0.26500
O1964       O  0.59828972  0.40774961  0.74817776    -0.79800
O1965       O  0.57255008  0.07443751  0.77962911    -0.79800
O1966       O  0.60252840  0.01696105  0.71357810    -0.79800
O1967       O  0.62099178  0.45635273  0.79543884    -0.79800
O1968       O  0.59581572  0.05339325  0.74218062    -0.79900
O1969       O  0.58967896  0.40209794  0.79208299    -0.79800
O1970       O  0.61593810  0.02972503  0.78643457    -0.79800
O1971       O  0.62742254  0.46401856  0.74302833    -0.79800
C1972       C  0.62589373  0.42685124  0.74028143     1.09900
C1973       C  0.60622978  0.06536877  0.78640445     1.09800
C1974       C  0.60692838  0.04987977  0.72296046     1.09900
C1975       C  0.61965168  0.41995072  0.79844669     1.09800
O1976       O  0.50829680  0.42859422  0.78565594    -0.79800
O1977       O  0.52251803  0.07832323  0.74450545    -0.79900
O1978       O  0.55751571  0.45028635  0.72105816    -0.79800
O1979       O  0.53633856  0.03155055  0.80452839    -0.79800
O1980       O  0.50068760  0.02936219  0.77581368    -0.79800
O1981       O  0.51675151  0.42936517  0.74413673    -0.79800
O1982       O  0.54151724  0.45126987  0.81248034    -0.79700
O1983       O  0.52975921  0.02221190  0.72689551    -0.79800
Co1984     Co  0.55341217  0.42093978  0.76757891     1.51500
Co1985     Co  0.54721435  0.03591764  0.75887104     1.51700
Co1986     Co  0.57832343  0.49483077  0.73861482     1.51600
Co1987     Co  0.57643640  0.49145701  0.79861200     1.51500
O1988       O  0.56189166  0.48124644  0.76838123    -1.41700
C1989       C  0.51046468  0.43711405  0.80486900     1.09800
C1990       C  0.51622540  0.05825743  0.72797479     1.09900
C1991       C  0.52958361  0.42864078  0.72578563     1.09900
C1992       C  0.50385946  0.03680017  0.79524966     1.09800
N1993       N  0.81085786  0.11857328  0.15557769    -0.36200
N1994       N  0.75236171  0.11834813  0.12388197    -0.56800
N1995       N  0.80975016  0.12346925  0.09083927    -0.36200
N1996       N  0.86880936  0.12082689  0.12309157    -0.56800
C1997       C  0.78085928  0.10205487  0.16507854     0.27300
C1998       C  0.84276068  0.10336810  0.16480278     0.27300
C1999       C  0.77826665  0.11103989  0.08001876     0.27300
C2000       C  0.84159804  0.11373268  0.07957771     0.27300
C2001       C  0.73208713  0.12803441  0.14127682     0.36000
C2002       C  0.73130320  0.13087444  0.10716276     0.36000
C2003       C  0.88882862  0.13074912  0.14064363     0.36000
C2004       C  0.88949774  0.13283582  0.10649820     0.36000
C2005       C  0.79365986  0.07454536  0.17983425    -0.21500
C2006       C  0.83319661  0.07551701  0.17975097    -0.21500
C2007       C  0.79051371  0.09259318  0.06164536    -0.21500
C2008       C  0.83029407  0.09493825  0.06120704    -0.21500
C2009       C  0.69832641  0.14789302  0.13578970    -0.22600
C2010       C  0.69812781  0.15044981  0.11416454    -0.22600
C2011       C  0.92205177  0.14988754  0.13531544    -0.22600
C2012       C  0.92221051  0.15177476  0.11366926    -0.22600
C2013       C  0.74279046  0.11459653  0.16155895    -0.17900
C2014       C  0.87956246  0.11727471  0.16093997    -0.17900
C2015       C  0.88013882  0.12363501  0.08525144    -0.17900
C2016       C  0.73922297  0.11851473  0.08621318    -0.17900
H2017       H  0.77637211  0.05664822  0.18998415     0.15000
H2018       H  0.85257502  0.05839570  0.18980965     0.15000
H2019       H  0.77286242  0.07862534  0.04976791     0.15000
H2020       H  0.84881724  0.08364557  0.04890413     0.15000
H2021       H  0.67591914  0.15848641  0.14620402     0.13300
H2022       H  0.67503191  0.16343459  0.10478593     0.13300
H2023       H  0.94424993  0.16036489  0.14589657     0.13300
H2024       H  0.94463344  0.16449436  0.10439830     0.13300
H2025       H  0.80962601  0.14259336  0.14526668     0.26500
H2026       H  0.80925766  0.14131513  0.10422109     0.26500
N2027       N  0.81708254  0.35528306  0.10388594    -0.36200
N2028       N  0.75606013  0.36752947  0.13409489    -0.56800
N2029       N  0.81282268  0.38375860  0.16718711    -0.36200
N2030       N  0.87363215  0.37339765  0.13567856    -0.56800
C2031       C  0.78614751  0.35117310  0.09108866     0.27300
C2032       C  0.84851773  0.35731914  0.09158988     0.27300
C2033       C  0.78042706  0.39995659  0.17556904     0.27300
C2034       C  0.84332181  0.40059670  0.17687728     0.27300
C2035       C  0.73543983  0.35011703  0.11858471     0.36000
C2036       C  0.73287642  0.37021718  0.15100354     0.36000
C2037       C  0.89728956  0.35924033  0.12052387     0.36000
C2038       C  0.89411911  0.37240190  0.15387300     0.36000
C2039       C  0.79788095  0.35080752  0.07031579    -0.21500
C2040       C  0.83723014  0.35457330  0.07062659    -0.21500
C2041       C  0.79048831  0.42684747  0.19108630    -0.21500
C2042       C  0.83020535  0.42738346  0.19184173    -0.21500
C2043       C  0.69887807  0.34188460  0.12567883    -0.22600
C2044       C  0.69713470  0.35500067  0.14614379    -0.22600
C2045       C  0.93316836  0.34968993  0.12913969    -0.22600
C2046       C  0.93105839  0.35775687  0.15025559    -0.22600
C2047       C  0.74835221  0.34361757  0.09775839    -0.17900
C2048       C  0.88715289  0.35552501  0.09894019    -0.17900
C2049       C  0.88251938  0.39173647  0.17257820    -0.17900
C2050       C  0.74215863  0.39026908  0.16987884    -0.17900
H2051       H  0.78013777  0.34669254  0.05640271     0.15000
H2052       H  0.85548958  0.35325644  0.05697344     0.15000
H2053       H  0.77123181  0.44455123  0.20072041     0.15000
H2054       H  0.84740172  0.44562980  0.20213116     0.15000
H2055       H  0.67557519  0.32870888  0.11687105     0.13300
H2056       H  0.67227060  0.35398062  0.15622065     0.13300
H2057       H  0.95843991  0.33853941  0.12107469     0.13300
H2058       H  0.95450226  0.35479074  0.16156040     0.13300
H2059       H  0.81716885  0.35060200  0.11999170     0.26500
H2060       H  0.81418663  0.36036741  0.15653650     0.26500
C2061       C  0.63928199  0.07974387  0.81900787    -0.11900
C2062       C  0.63262777  0.09142272  0.79809965     0.05100
C2063       C  0.66037057  0.11525138  0.78833318    -0.07200
C2064       C  0.69340708  0.12678661  0.79970019    -0.07900
C2065       C  0.70065543  0.11285435  0.82015319    -0.02500
C2066       C  0.67325781  0.08876119  0.82967703     0.04300
N2067       N  0.68040770  0.07145588  0.84987494     0.66800
H2068       H  0.61948513  0.05995004  0.82650641     0.15700
H2069       H  0.71395612  0.14588650  0.79235790     0.15400
N2070       N  0.65702108  0.12627168  0.76672923     0.74500
O2071       O  0.66446894  0.08649956  0.86581523    -0.38900
O2072       O  0.69292048  0.03621600  0.85080617    -0.38900
O2073       O  0.65305626  0.16248117  0.76227440    -0.39600
O2074       O  0.67071939  0.10305763  0.75304223    -0.39600
C2075       C  0.91391911  0.10499737  0.81024663    -0.11900
C2076       C  0.90467809  0.08982891  0.82983112     0.05100
C2077       C  0.92770866  0.05884749  0.83836578    -0.07200
C2078       C  0.96093166  0.04517791  0.82773814    -0.07900
C2079       C  0.97009356  0.06008149  0.80774821    -0.02500
C2080       C  0.94538418  0.08981669  0.79900335     0.04300
N2081       N  0.94948304  0.10287947  0.77796105     0.66800
H2082       H  0.89595771  0.12829428  0.80335861     0.15700
H2083       H  0.97836536  0.02147135  0.83458278     0.15400
N2084       N  0.91559931  0.03912858  0.85691484     0.74500
O2085       O  0.92756771  0.08787977  0.76432659    -0.38900
O2086       O  0.96263584  0.13678285  0.77473947    -0.38900
O2087       O  0.88673478  0.01717365  0.85577849    -0.39600
O2088       O  0.92690193  0.05112161  0.87469288    -0.39600
C2089       C  0.68434668  0.36126117  0.83807188    -0.11900
C2090       C  0.71615769  0.38646974  0.83946275     0.05100
C2091       C  0.71829055  0.41695980  0.82434494    -0.07200
C2092       C  0.68799720  0.42360609  0.80996086    -0.07900
C2093       C  0.65382208  0.40181784  0.81021827    -0.02500
C2094       C  0.65306222  0.36895243  0.82400881     0.04300
N2095       N  0.62048887  0.34409380  0.82488876     0.66800
H2096       H  0.68281494  0.33643307  0.84874552     0.15700
H2097       H  0.69050573  0.44819963  0.79919459     0.15400
N2098       N  0.74996290  0.44326477  0.82392547     0.74500
O2099       O  0.62188242  0.31149340  0.81522919    -0.38900
O2100       O  0.59764444  0.34813930  0.84007226    -0.38900
O2101       O  0.77329585  0.44076389  0.80888189    -0.39600
O2102       O  0.74789095  0.47501223  0.83432348    -0.39600
C2103       C  0.91011529  0.43460977  0.82667702    -0.11900
C2104       C  0.91525823  0.41155163  0.84469419     0.05100
C2105       C  0.95195671  0.39436761  0.84897659    -0.07200
C2106       C  0.98394214  0.40526261  0.83703307    -0.07900
C2107       C  0.97893736  0.42935663  0.81916847    -0.02500
C2108       C  0.94086984  0.44139235  0.81323012     0.04300
N2109       N  0.93229358  0.45843911  0.79310091     0.66800
H2110       H  0.88173650  0.44653538  0.82269992     0.15700
H2111       H  0.50988751  0.39095451  0.83957070     0.15400
N2112       N  0.95614361  0.36368554  0.86432763     0.74500
O2113       O  0.92852998  0.43550731  0.77756468    -0.38900
O2114       O  0.91633145  0.49224702  0.79223106    -0.38900
O2115       O  0.94044470  0.33088640  0.86111372    -0.39600
O2116       O  0.97104939  0.37084635  0.88206724    -0.39600
C2117       C  0.63543506  0.12003418  0.06741680    -0.11900
C2118       C  0.63889241  0.13941811  0.04807260     0.05100
C2119       C  0.67532699  0.13838029  0.03836748    -0.07200
C2120       C  0.70842500  0.12865186  0.05020347    -0.07900
C2121       C  0.70561813  0.11499641  0.07091440    -0.02500
C2122       C  0.66849466  0.10411295  0.07779381     0.04300
N2123       N  0.66450336  0.07884417  0.09575382     0.66800
H2124       H  0.60728575  0.11743020  0.07437176     0.15700
H2125       H  0.73603706  0.13485552  0.04345005     0.15400
N2126       N  0.67948981  0.14677830  0.01655480     0.74500
O2127       O  0.63608348  0.08299120  0.10781605    -0.38900
O2128       O  0.68906251  0.05150598  0.09930777    -0.38900
O2129       O  0.69154183  0.17997611  0.01094447    -0.39600
O2130       O  0.68402257  0.11773331  0.00435185    -0.39600
C2131       C  0.90063425  0.15269747  0.05102937    -0.11900
C2132       C  0.91008821  0.12865981  0.06839462     0.05100
C2133       C  0.94897620  0.11500389  0.07053278    -0.07200
C2134       C  0.97770823  0.13072438  0.05776349    -0.07900
C2135       C  0.96855021  0.15786608  0.04176808    -0.02500
C2136       C  0.92908582  0.16699865  0.03766030     0.04300
N2137       N  0.91737037  0.19512786  0.02200134     0.66800
H2138       H  0.87123258  0.16342066  0.04880496     0.15700
H2139       H  0.00760149  0.12245044  0.06076555     0.15400
N2140       N  0.95993691  0.08467535  0.08518441     0.74500
O2141       O  0.90382052  0.18250924  0.00481816    -0.38900
O2142       O  0.40805424  0.22583539  0.02705034    -0.38900
O2143       O  0.96057732  0.04937352  0.07875539    -0.39600
O2144       O  0.98062163  0.09339808  0.10090261    -0.39600
C2145       C  0.66838775  0.32998759  0.05697126    -0.11900
C2146       C  0.67040318  0.28873468  0.05372936     0.05100
C2147       C  0.69973927  0.26687833  0.06424670    -0.07200
C2148       C  0.72459322  0.28515280  0.07848800    -0.07900
C2149       C  0.72162607  0.32574135  0.08219854    -0.02500
C2150       C  0.69433413  0.34858834  0.07078541     0.04300
N2151       N  0.69366808  0.39065539  0.07270771     0.66800
H2152       H  0.64663086  0.34774211  0.04879545     0.15700
H2153       H  0.74613024  0.26745104  0.08689813     0.15400
N2154       N  0.70350172  0.22549435  0.06148073     0.74500
O2155       O  0.71708240  0.41040320  0.06219848    -0.38900
O2156       O  0.67680296  0.40673938  0.08807844    -0.38900
O2157       O  0.72713061  0.21175865  0.04830388    -0.39600
O2158       O  0.68118511  0.20302784  0.07102479    -0.39600
C2159       C  0.96084083  0.34406694  0.05476464    -0.11900
C2160       C  0.97011622  0.30372061  0.05662786     0.05100
C2161       C  0.95358073  0.28184156  0.07294584    -0.07200
C2162       C  0.92668995  0.29971467  0.08617044    -0.07900
C2163       C  0.91682125  0.33972585  0.08425966    -0.02500
C2164       C  0.93450030  0.36236803  0.06853167     0.04300
N2165       N  0.92623447  0.40365925  0.06626148     0.66800
H2166       H  0.97358361  0.36125530  0.04238567     0.15700
H2167       H  0.91361108  0.28217813  0.09832045     0.15400
N2168       N  0.46317947  0.24163986  0.07743332     0.74500
O2169       O  0.90090881  0.41485651  0.05304473    -0.38900
O2170       O  0.95122496  0.42786338  0.07226127    -0.38900
O2171       O  0.49129624  0.23470611  0.08973471    -0.39600
O2172       O  0.43781100  0.21587786  0.07552282    -0.39600
C2173       C  0.69097208  0.37148229  0.95693355    -0.11900
C2174       C  0.72156645  0.34800570  0.94906933     0.05100
C2175       C  0.72542513  0.30837128  0.95600640    -0.07200
C2176       C  0.69754152  0.29315082  0.96939062    -0.07900
C2177       C  0.66461991  0.31539394  0.97584874    -0.02500
C2178       C  0.66240209  0.35562912  0.96987987     0.04300
N2179       N  0.63162761  0.38106842  0.97657668     0.66800
H2180       H  0.68859947  0.40232035  0.95243175     0.15700
H2181       H  0.70102592  0.26238985  0.97382142     0.15400
N2182       N  0.75724697  0.28289279  0.94980579     0.74500
O2183       O  0.63723043  0.40334290  0.99220919    -0.38900
O2184       O  0.60532988  0.39029521  0.96350918    -0.38900
O2185       O  0.77241355  0.25912231  0.96293731    -0.39600
O2186       O  0.77078324  0.28419172  0.93148205    -0.39600
C2187       C  0.96250788  0.37105880  0.97411014    -0.11900
C2188       C  0.98246025  0.34186521  0.96223190     0.05100
C2189       C  0.97307221  0.33833103  0.94053402    -0.07200
C2190       C  0.94212546  0.35979080  0.93196007    -0.07900
C2191       C  0.92067159  0.38670903  0.94394986    -0.02500
C2192       C  0.93265949  0.39458314  0.96474404     0.04300
N2193       N  0.91603119  0.42745021  0.97583371     0.66800
H2194       H  0.97019518  0.37569045  0.99047819     0.15700
H2195       H  0.93329112  0.35353023  0.91591693     0.15400
N2196       N  0.48913689  0.31040245  0.92846727     0.74500
O2197       O  0.88802951  0.42227612  0.98790276    -0.38900
O2198       O  0.92328995  0.46203835  0.96987952    -0.38900
O2199       O  0.47221709  0.27942005  0.92285516    -0.39600
O2200       O  0.51695810  0.32211918  0.91771076    -0.39600
C2201       C  0.67844904  0.15586514  0.92922274    -0.11900
C2202       C  0.69129650  0.18751943  0.91716012     0.05100
C2203       C  0.67076008  0.22394759  0.91797834    -0.07200
C2204       C  0.64019580  0.22862158  0.93192052    -0.07900
C2205       C  0.62880223  0.19773471  0.94521276    -0.02500
C2206       C  0.64752164  0.16045747  0.94308659     0.04300
N2207       N  0.63523547  0.12656768  0.95426833     0.66800
H2208       H  0.69274218  0.12718022  0.92786428     0.15700
H2209       H  0.62628869  0.25755104  0.93279251     0.15400
N2210       N  0.68011984  0.25660226  0.90484238     0.74500
O2211       O  0.60702474  0.10779606  0.94702823    -0.38900
O2212       O  0.65924420  0.10855335  0.96599298    -0.38900
O2213       O  0.65763526  0.26580073  0.88981066    -0.39600
O2214       O  0.70151988  0.28289174  0.91222058    -0.39600
C2215       C  0.88651452  0.21318292  0.93714459    -0.11900
C2216       C  0.89184654  0.17551267  0.92862479     0.05100
C2217       C  0.92384030  0.15216400  0.93546321    -0.07200
C2218       C  0.95199747  0.16862557  0.94894690    -0.07900
C2219       C  0.94665633  0.20695922  0.95728840    -0.02500
C2220       C  0.91213666  0.22803700  0.95206869     0.04300
N2221       N  0.39864180  0.26451646  0.96422357     0.66800
H2222       H  0.86150728  0.23103836  0.93254560     0.15700
H2223       H  0.97667364  0.15069323  0.95391351     0.15400
N2224       N  0.92576004  0.11093028  0.93050376     0.74500
O2225       O  0.39528260  0.29807908  0.95578434    -0.38900
O2226       O  0.37678985  0.25661943  0.97929936    -0.38900
O2227       O  0.94571533  0.09870486  0.91527392    -0.39600
O2228       O  0.90277243  0.08780787  0.93918292    -0.39600
C2229       C  0.95411387  0.41846762  0.21645739    -0.11900
C2230       C  0.97779114  0.44487086  0.20578553     0.05100
C2231       C  0.96934360  0.45305335  0.18432803    -0.07200
C2232       C  0.93689939  0.43719538  0.17471885    -0.07900
C2233       C  0.91360438  0.41064942  0.18522132    -0.02500
C2234       C  0.92266076  0.40084708  0.20629752     0.04300
N2235       N  0.90131006  0.37219065  0.21741596     0.66800
H2236       H  0.95970470  0.41166244  0.23287699     0.15700
H2237       H  0.93077819  0.44433052  0.15837098     0.15400
N2238       N  0.49925340  0.46386929  0.16904803     0.74500
O2239       O  0.87567690  0.38383873  0.23003999    -0.38900
O2240       O  0.91542852  0.33770013  0.21937398    -0.38900
O2241       O  0.52815194  0.44263243  0.16421326    -0.39600
O2242       O  0.48918204  0.49186660  0.15694037    -0.39600
C2243       C  0.69863584  0.38862608  0.20137361    -0.11900
C2244       C  0.70962598  0.40665133  0.18259427     0.05100
C2245       C  0.68986537  0.44098129  0.17588736    -0.07200
C2246       C  0.65896104  0.45609785  0.18755241    -0.07900
C2247       C  0.64750350  0.43889957  0.20670474    -0.02500
C2248       C  0.66837876  0.40467332  0.21361524     0.04300
N2249       N  0.66074878  0.38656913  0.23331420     0.66800
H2250       H  0.71423978  0.36244643  0.20682161     0.15700
H2251       H  0.64540811  0.48300486  0.18197959     0.15400
N2252       N  0.70325097  0.46274943  0.15823126     0.74500
O2253       O  0.64135064  0.35549386  0.23347929    -0.38900
O2254       O  0.68293326  0.39352039  0.24867108    -0.38900
O2255       O  0.69395385  0.45239714  0.13981437    -0.39600
O2256       O  0.77689774  0.97475631  0.19131201    -0.39600
C2257       C  0.93072815  0.10236182  0.21356889    -0.11900
C2258       C  0.96047936  0.07650423  0.20762975     0.05100
C2259       C  0.96614206  0.06876760  0.18593745    -0.07200
C2260       C  0.94047165  0.08422269  0.17103471    -0.07900
C2261       C  0.91012846  0.10918894  0.17691114    -0.02500
C2262       C  0.90633346  0.11979423  0.19836261     0.04300
N2263       N  0.87867150  0.14883035  0.20498389     0.66800
H2264       H  0.92692841  0.10983475  0.22995871     0.15700
H2265       H  0.94380527  0.07562873  0.15469956     0.15400
N2266       N  0.51629826  0.08229470  0.18351600     0.74500
O2267       O  0.85062061  0.13777383  0.21569211    -0.38900
O2268       O  0.88914581  0.18416227  0.20670701    -0.38900
O2269       O  0.52453210  0.61418503  0.17530356    -0.39600
O2270       O  0.52798878  0.05162376  0.17411709    -0.39600
C2271       C  0.69692610  0.09733996  0.21487382    -0.11900
C2272       C  0.66607697  0.07409661  0.20889112     0.05100
C2273       C  0.65772198  0.06921366  0.18719927    -0.07200
C2274       C  0.68204266  0.08437487  0.17213321    -0.07900
C2275       C  0.71371331  0.10655062  0.17795820    -0.02500
C2276       C  0.71994816  0.11470567  0.19963435     0.04300
N2277       N  0.74965598  0.14015119  0.20659938     0.66800
H2278       H  0.70263761  0.10282983  0.23141378     0.15700
H2279       H  0.67645540  0.07777166  0.15569545     0.15400
N2280       N  0.62393558  0.05043633  0.17976981     0.74500
O2281       O  0.74203803  0.17667028  0.20806975    -0.38900
O2282       O  0.77648862  0.12555218  0.21783044    -0.38900
O2283       O  0.59880309  0.07238608  0.17102479    -0.39600
O2284       O  0.60328053  0.53759521  0.17324285    -0.39600
C2285       C  0.61776376  0.15334541  0.70021540    -0.11900
C2286       C  0.64929962  0.14809473  0.68716693     0.05100
C2287       C  0.66959410  0.11152161  0.68738422    -0.07200
C2288       C  0.65569342  0.07965589  0.69909279    -0.07900
C2289       C  0.62347180  0.08470319  0.71212047    -0.02500
C2290       C  0.60568649  0.12303322  0.71328598     0.04300
N2291       N  0.57433328  0.13220274  0.72691036     0.66800
H2292       H  0.60224629  0.18150624  0.70028508     0.15700
H2293       H  0.67049103  0.05117535  0.69832720     0.15400
N2294       N  0.70466795  0.10687436  0.67602726     0.74500
O2295       O  0.58197068  0.14267655  0.74551011    -0.38900
O2296       O  0.54313521  0.14469553  0.71871328    -0.38900
O2297       O  0.73349275  0.12696647  0.68118022    -0.39600
O2298       O  0.70503709  0.08763001  0.65904679    -0.39600
C2299       C  0.69627673  0.35809476  0.71054443    -0.11900
C2300       C  0.67564226  0.35311545  0.69159310     0.05100
C2301       C  0.64296363  0.37750384  0.68775553    -0.07200
C2302       C  0.63097554  0.40513187  0.70295331    -0.07900
C2303       C  0.64849187  0.40680515  0.72308826    -0.02500
C2304       C  0.68229973  0.38344758  0.72654371     0.04300
N2305       N  0.70241290  0.38402805  0.74622895     0.66800
H2306       H  0.72214206  0.34036116  0.71346725     0.15700
H2307       H  0.60552427  0.42272352  0.69942200     0.15400
N2308       N  0.61928320  0.37147969  0.66945010     0.74500
O2309       O  0.69680917  0.35663038  0.75919834    -0.38900
O2310       O  0.73333169  0.40283016  0.74752506    -0.38900
O2311       O  0.60145271  0.33960733  0.66724672    -0.39600
O2312       O  0.61999310  0.39560232  0.65436405    -0.39600
C2313       C  0.49769848  0.10953512  0.67574406    -0.11900
C2314       C  0.96252098  0.14139772  0.68252461     0.05100
C2315       C  0.94407950  0.13343740  0.70176144    -0.07200
C2316       C  0.96208858  0.10800223  0.71640122    -0.07900
C2317       C  0.49467419  0.07731305  0.71005357    -0.02500
C2318       C  0.51016683  0.07928158  0.68955393     0.04300
N2319       N  0.53826301  0.05111034  0.68230694     0.66800
H2320       H  0.51197365  0.11269263  0.66078998     0.15700
H2321       H  0.94953703  0.10513355  0.73157918     0.15400
N2322       N  0.90651641  0.14916580  0.70641919     0.74500
O2323       O  0.52648914  0.01931984  0.67435089    -0.38900
O2324       O  0.57096951  0.06302925  0.67713176    -0.38900
O2325       O  0.87778072  0.12977663  0.70040167    -0.39600
O2326       O  0.90248007  0.17243868  0.72182026    -0.39600
C2327       C  0.52260241  0.33697022  0.69211201    -0.11900
C2328       C  0.98322311  0.34556839  0.68439993     0.05100
C2329       C  0.96228859  0.38134784  0.68682404    -0.07200
C2330       C  0.97693813  0.41096945  0.69983328    -0.07900
C2331       C  0.51494986  0.39902605  0.71091884    -0.02500
C2332       C  0.53581363  0.36321601  0.70727357     0.04300
N2333       N  0.56548968  0.34919068  0.72138311     0.66800
H2334       H  0.53927142  0.31033586  0.68865011     0.15700
H2335       H  0.96192007  0.43929382  0.70098146     0.15400
N2336       N  0.92461251  0.38594367  0.67785889     0.74500
O2337       O  0.55711939  0.34538343  0.74051939    -0.38900
O2338       O  0.59298052  0.32830720  0.71426986    -0.38900
O2339       O  0.89710999  0.36721315  0.68555494    -0.39600
O2340       O  0.92030002  0.40220124  0.66020719    -0.39600
C2341       C  0.83670891  0.11253017  0.57496814    -0.11900
C2342       C  0.85556465  0.10011320  0.55638994     0.05100
C2343       C  0.88840698  0.12120531  0.55011627    -0.07200
C2344       C  0.90275183  0.15162297  0.56287686    -0.07900
C2345       C  0.88423956  0.16281302  0.58143622    -0.02500
C2346       C  0.85032683  0.14398968  0.58714129     0.04300
N2347       N  0.82926509  0.15730655  0.60512875     0.66800
H2348       H  0.81054480  0.09850537  0.57985235     0.15700
H2349       H  0.92882247  0.16631334  0.55838851     0.15400
N2350       N  0.90768776  0.11262904  0.53089393     0.74500
O2351       O  0.81064570  0.18970723  0.60419544    -0.38900
O2352       O  0.83641463  0.14201519  0.62287254    -0.38900
O2353       O  0.90006049  0.13403092  0.51508355    -0.39600
O2354       O  0.93937873  0.09368350  0.53161502    -0.39600
C2355       C  0.89109246  0.43445960  0.58005480    -0.11900
C2356       C  0.89330466  0.43090395  0.55824765     0.05100
C2357       C  0.91265593  0.39724500  0.54980565    -0.07200
C2358       C  0.92510131  0.36631964  0.56306463    -0.07900
C2359       C  0.91949448  0.36822899  0.58481563    -0.02500
C2360       C  0.90459803  0.40419925  0.59334963     0.04300
N2361       N  0.90305487  0.41141074  0.61538641     0.66800
H2362       H  0.87728556  0.46042873  0.58689512     0.15700
H2363       H  0.93822436  0.34001601  0.55621130     0.15400
N2364       N  0.91843425  0.39279765  0.52776097     0.74500
O2365       O  0.92645123  0.43576394  0.62301519    -0.38900
O2366       O  0.87156914  0.40669556  0.62461742    -0.38900
O2367       O  0.95018568  0.40309560  0.52033738    -0.39600
O2368       O  0.89842741  0.36836310  0.51764712    -0.39600
C2369       C  0.72011313  0.08157852  0.57162647    -0.11900
C2370       C  0.71530272  0.09247788  0.55053428     0.05100
C2371       C  0.69631296  0.12869509  0.54573137    -0.07200
C2372       C  0.68464058  0.15402012  0.56200499    -0.07900
C2373       C  0.69373940  0.14521042  0.58303663    -0.02500
C2374       C  0.71033874  0.10772269  0.58783941     0.04300
N2375       N  0.72011203  0.09646417  0.60887006     0.66800
H2376       H  0.73492454  0.05398256  0.57558868     0.15700
H2377       H  0.67104084  0.18224499  0.55808869     0.15400
N2378       N  0.68873939  0.14071535  0.52458039     0.74500
O2379       O  0.70120860  0.06940194  0.61726857    -0.38900
O2380       O  0.75351255  0.10330272  0.61579236    -0.38900
O2381       O  0.65404484  0.14531943  0.51882688    -0.39600
O2382       O  0.71426214  0.15921677  0.51494397    -0.39600
C2383       C  0.78717045  0.38543910  0.57046398    -0.11900
C2384       C  0.76587882  0.38734322  0.55157766     0.05100
C2385       C  0.73139951  0.36631540  0.54992460    -0.07200
C2386       C  0.71900611  0.34400200  0.56706199    -0.07900
C2387       C  0.74006844  0.34255810  0.58610535    -0.02500
C2388       C  0.77444865  0.36381939  0.58770666     0.04300
N2389       N  0.79658185  0.36437339  0.60675480     0.66800
H2390       H  0.81338062  0.40193592  0.57214190     0.15700
H2391       H  0.69288188  0.32725752  0.56544033     0.15400
N2392       N  0.70939258  0.36595615  0.53080878     0.74500
O2393       O  0.79368129  0.39416203  0.61864900    -0.38900
O2394       O  0.82576941  0.34172836  0.60851877    -0.38900
O2395       O  0.71257634  0.33643731  0.51873868    -0.39600
O2396       O  0.67998362  0.38834035  0.52914413    -0.39600
C2397       C  0.66097342  0.11454993  0.30041506    -0.11900
C2398       C  0.62277883  0.11336819  0.29298711     0.05100
C2399       C  0.59716118  0.14459586  0.29844043    -0.07200
C2400       C  0.60782135  0.17213987  0.31371874    -0.07900
C2401       C  0.64541155  0.17241706  0.32194029    -0.02500
C2402       C  0.67279965  0.14445362  0.31423067     0.04300
N2403       N  0.71247054  0.14550102  0.32047379     0.66800
H2404       H  0.68154004  0.09152704  0.29602054     0.15700
H2405       H  0.58666601  0.19393731  0.31893953     0.15400
N2406       N  0.56164971  0.15085765  0.28729719     0.74500
O2407       O  0.72516762  0.12130927  0.33410000    -0.38900
O2408       O  0.73599484  0.16124759  0.30824117    -0.38900
O2409       O  0.53038402  0.14707037  0.29683683    -0.39600
O2410       O  0.56179368  0.17109141  0.27064802    -0.39600
C2411       C  0.63917742  0.41053584  0.34147378    -0.11900
C2412       C  0.66350286  0.37958863  0.33443221     0.05100
C2413       C  0.68266394  0.38430338  0.31516708    -0.07200
C2414       C  0.67486182  0.41775465  0.30272198    -0.07900
C2415       C  0.64785201  0.44699729  0.30882301    -0.02500
C2416       C  0.63149870  0.44417934  0.32907742     0.04300
N2417       N  0.60620995  0.47438880  0.33716748     0.66800
H2418       H  0.62509151  0.40803632  0.35652400     0.15700
H2419       H  0.68860456  0.41960261  0.28757972     0.15400
N2420       N  0.70961803  0.35517026  0.30771672     0.74500
O2421       O  0.57025781  0.47054259  0.33537355    -0.38900
O2422       O  0.61897676  0.49783037  0.35090016    -0.38900
O2423       O  0.70103484  0.33507745  0.29165259    -0.39600
O2424       O  0.74455920  0.35766490  0.31310614    -0.39600
C2425       C  0.74608459  0.10428927  0.43850058    -0.11900
C2426       C  0.72317523  0.08720366  0.45383731     0.05100
C2427       C  0.68481099  0.10122169  0.45626518    -0.07200
C2428       C  0.67070863  0.13249793  0.44351265    -0.07900
C2429       C  0.69419851  0.14966562  0.42833939    -0.02500
C2430       C  0.73211034  0.13497273  0.42583828     0.04300
N2431       N  0.75699676  0.15085180  0.41041417     0.66800
H2432       H  0.77561407  0.09399846  0.43644931     0.15700
H2433       H  0.64118916  0.14298599  0.44517331     0.15400
N2434       N  0.65889447  0.08225799  0.47007125     0.74500
O2435       O  0.78018701  0.17728362  0.41582053    -0.38900
O2436       O  0.76330421  0.13131721  0.39383386    -0.38900
O2437       O  0.64306474  0.10232915  0.48441173    -0.39600
O2438       O  0.64292212  0.05114262  0.46386256    -0.39600
C2439       C  0.74297589  0.33758817  0.44890758    -0.11900
C2440       C  0.70746553  0.34851498  0.44001068     0.05100
C2441       C  0.68812955  0.38281225  0.44708958    -0.07200
C2442       C  0.70697081  0.40865978  0.46089792    -0.07900
C2443       C  0.74409673  0.39912307  0.46887002    -0.02500
C2444       C  0.76066249  0.36147933  0.46384380     0.04300
N2445       N  0.79459519  0.34604223  0.47413999     0.66800
H2446       H  0.75706067  0.31007969  0.44424269     0.15700
H2447       H  0.69270903  0.43623748  0.46521337     0.15400
N2448       N  0.64906346  0.39065505  0.44080030     0.74500
O2449       O  0.82617489  0.34605331  0.46454143    -0.38900
O2450       O  0.79068055  0.32202959  0.48908468    -0.38900
O2451       O  0.62290737  0.36951597  0.44811981    -0.39600
O2452       O  0.64190516  0.41168424  0.42480603    -0.39600
C2453       C  0.98891439  0.08547720  0.33196177    -0.11900
C2454       C  0.97689767  0.07911555  0.31106640     0.05100
C2455       C  0.94800830  0.10480657  0.30236242    -0.07200
C2456       C  0.93340418  0.13661828  0.31418597    -0.07900
C2457       C  0.94772491  0.14446661  0.33436214    -0.02500
C2458       C  0.97530010  0.11814877  0.34343183     0.04300
N2459       N  0.99228941  0.12591750  0.36355273     0.66800
H2460       H  0.01118927  0.06671072  0.33902024     0.15700
H2461       H  0.91196681  0.15647349  0.30717759     0.15400
N2462       N  0.93484056  0.10103073  0.28112886     0.74500
O2463       O  0.98144366  0.10658672  0.37927527    -0.38900
O2464       O  0.02435974  0.14272139  0.36440023    -0.38900
O2465       O  0.90327254  0.08437872  0.27754701    -0.39600
O2466       O  0.94774020  0.12423057  0.26753049    -0.39600
C2467       C  0.99328951  0.35784433  0.31577271    -0.11900
C2468       C  0.95410903  0.35174501  0.31872136     0.05100
C2469       C  0.92713644  0.37483755  0.30709474    -0.07200
C2470       C  0.93964893  0.40614293  0.29436679    -0.07900
C2471       C  0.97924073  0.41372991  0.29213093    -0.02500
C2472       C  0.00603443  0.38722740  0.30214982     0.04300
N2473       N  0.04640533  0.38855592  0.29836258     0.66800
H2474       H  0.01432966  0.33955591  0.32419531     0.15700
H2475       H  0.91830003  0.42482177  0.28646580     0.15400
N2476       N  0.88700521  0.36667152  0.30827152     0.74500
O2477       O  0.06841000  0.39918788  0.31312344    -0.38900
O2478       O  0.55994312  0.36331143  0.28588481    -0.38900
O2479       O  0.86621840  0.38526497  0.32126746    -0.39600
O2480       O  0.87450451  0.33564652  0.29980602    -0.39600
C2481       C  0.87415125  0.10654864  0.45156702    -0.11900
C2482       C  0.84475467  0.12100936  0.46453449     0.05100
C2483       C  0.83403125  0.16158617  0.46321258    -0.07200
C2484       C  0.85018686  0.18555087  0.44783811    -0.07900
C2485       C  0.87898722  0.17092931  0.43433037    -0.02500
C2486       C  0.89216252  0.13119965  0.43710755     0.04300
N2487       N  0.92484649  0.11559846  0.42615954     0.66800
H2488       H  0.88388497  0.07600448  0.45294971     0.15700
H2489       H  0.83970641  0.21582118  0.44630181     0.15400
N2490       N  0.80634303  0.17893518  0.47715229     0.74500
O2491       O  0.95760135  0.11829486  0.43477519    -0.38900
O2492       O  0.91986864  0.08886442  0.41259190    -0.38900
O2493       O  0.81730808  0.19217580  0.49476002    -0.39600
O2494       O  0.77082604  0.17529999  0.47341630    -0.39600
C2495       C  0.92495006  0.39155031  0.43610887    -0.11900
C2496       C  0.89852911  0.37163814  0.42343275     0.05100
C2497       C  0.85960917  0.38355364  0.42337088    -0.07200
C2498       C  0.84750578  0.41520991  0.43594227    -0.07900
C2499       C  0.87338648  0.43476338  0.44951114    -0.02500
C2500       C  0.91274046  0.42250240  0.44938698     0.04300
N2501       N  0.94088141  0.44058001  0.46252783     0.66800
H2502       H  0.95507636  0.38248363  0.43598833     0.15700
H2503       H  0.81704581  0.42290497  0.43589818     0.15400
N2504       N  0.83186601  0.36246499  0.41117960     0.74500
O2505       O  0.95211921  0.42238546  0.47883686    -0.38900
O2506       O  0.96314479  0.46503999  0.45436314    -0.38900
O2507       O  0.82073058  0.32935350  0.41753344    -0.39600
O2508       O  0.82499205  0.37261681  0.39240009    -0.39600
N2509       N  0.90457741  0.77168098  0.40830625    -0.36200
N2510       N  0.92828379  0.82441413  0.37451743    -0.56800
N2511       N  0.93601636  0.75696384  0.34631348    -0.36200
N2512       N  0.91812220  0.70406184  0.38154064    -0.56800
C2513       C  0.90937761  0.80552830  0.41930237     0.27300
C2514       C  0.90085603  0.74192905  0.42236028     0.27300
C2515       C  0.94930947  0.78578209  0.33373925     0.27300
C2516       C  0.94831137  0.72175565  0.33835271     0.27300
C2517       C  0.92026361  0.85193326  0.38938931     0.36000
C2518       C  0.93408245  0.84437045  0.35644062     0.36000
C2519       C  0.89665874  0.68716243  0.39655117     0.36000
C2520       C  0.91874051  0.67869046  0.36511222     0.36000
C2521       C  0.90836354  0.79726702  0.44065593    -0.21500
C2522       C  0.90343148  0.75715608  0.44258047    -0.21500
C2523       C  0.96886494  0.76867992  0.31704491    -0.21500
C2524       C  0.96866026  0.72844358  0.32008804    -0.21500
C2525       C  0.92228289  0.88952444  0.38089066    -0.22600
C2526       C  0.93098140  0.88476075  0.36006915    -0.22600
C2527       C  0.88275209  0.65146162  0.38931581    -0.22600
C2528       C  0.89757783  0.64564129  0.36959671    -0.22600
C2529       C  0.91142466  0.84402020  0.41063885    -0.17900
C2530       C  0.89247218  0.70205257  0.41726713    -0.17900
C2531       C  0.93995477  0.68384486  0.34656880    -0.17900
C2532       C  0.94472956  0.82708267  0.33697491    -0.17900
H2533       H  0.91062447  0.81797056  0.45357596     0.15000
H2534       H  0.90134284  0.74119917  0.45724072     0.15000
H2535       H  0.98252008  0.78358359  0.30416338     0.15000
H2536       H  0.98155194  0.70678503  0.30971108     0.15000
H2537       H  0.91798718  0.91754028  0.38886405     0.13300
H2538       H  0.93489910  0.90845056  0.34893563     0.13300
H2539       H  0.86455602  0.63122934  0.39755782     0.13300
H2540       H  0.89299427  0.62024230  0.35957449     0.13300
H2541       H  0.89897509  0.76989062  0.39223357     0.26500
H2542       H  0.91717019  0.76103568  0.35873820     0.26500
N2543       N  0.68149712  0.75194119  0.41148814    -0.36200
N2544       N  0.66616726  0.70142552  0.37558543    -0.56800
N2545       N  0.67282977  0.76952099  0.34739078    -0.36200
N2546       N  0.68425196  0.82067050  0.38404128    -0.56800
C2547       C  0.67577555  0.71747982  0.42160309     0.27300
C2548       C  0.68137122  0.78107605  0.42611391     0.27300
C2549       C  0.65645399  0.74299136  0.33412175     0.27300
C2550       C  0.66805623  0.80602252  0.33868220     0.27300
C2551       C  0.67152056  0.67298396  0.39042851     0.36000
C2552       C  0.66153695  0.68256111  0.35693273     0.36000
C2553       C  0.69772243  0.83645325  0.40220579     0.36000
C2554       C  0.69417770  0.84550281  0.36843666     0.36000
C2555       C  0.67146393  0.72483845  0.44293629    -0.21500
C2556       C  0.67446068  0.76504277  0.44573218    -0.21500
C2557       C  0.64175608  0.76293483  0.31662924    -0.21500
C2558       C  0.64850769  0.80254538  0.31965507    -0.21500
C2559       C  0.66863799  0.63599660  0.38132257    -0.22600
C2560       C  0.66164283  0.64200131  0.36026834    -0.22600
C2561       C  0.71629033  0.87142894  0.39806676    -0.22600
C2562       C  0.71392175  0.87719462  0.37672047    -0.22600
C2563       C  0.67834896  0.67955525  0.41222051    -0.17900
C2564       C  0.69257763  0.82049703  0.42257786    -0.17900
C2565       C  0.68209510  0.84208906  0.34715353    -0.17900
C2566       C  0.65552029  0.70119115  0.33704806    -0.17900
H2567       H  0.66741830  0.70360012  0.45535047     0.15000
H2568       H  0.67359513  0.78044101  0.46066599     0.15000
H2569       H  0.62739346  0.75045280  0.30305410     0.15000
H2570       H  0.64009167  0.82604411  0.30892239     0.15000
H2571       H  0.67068916  0.60760690  0.38911657     0.13300
H2572       H  0.65721361  0.61885384  0.34880311     0.13300
H2573       H  0.73004034  0.89089931  0.40925020     0.13300
H2574       H  0.72513516  0.90207336  0.36825404     0.13300
H2575       H  0.69099558  0.75439018  0.39628595     0.26500
H2576       H  0.68941923  0.76276170  0.36054859     0.26500
O2577       O  0.86573115  0.96714841  0.48606456    -0.79800
O2578       O  0.84806558  0.56298864  0.52167507    -0.79800
O2579       O  0.82833386  0.55616860  0.47395677    -0.79800
O2580       O  0.82561315  0.96767631  0.55455089    -0.79800
O2581       O  0.80763166  0.60717636  0.49302546    -0.79900
O2582       O  0.86845596  0.96454870  0.52942121    -0.79800
O2583       O  0.81616209  0.54498619  0.54973223    -0.79800
O2584       O  0.81891622  0.97708623  0.46372516    -0.79800
C2585       C  0.85282384  0.96437512  0.46748356     1.09900
C2586       C  0.84210575  0.56568230  0.54128043     1.09800
C2587       C  0.82598789  0.59423801  0.47733671     1.09900
C2588       C  0.85904744  0.95739894  0.54805495     1.09800
O2589       O  0.80154203  0.91522603  0.52983716    -0.79800
O2590       O  0.75027213  0.55852279  0.48475724    -0.79900
O2591       O  0.74819194  0.96490117  0.48334205    -0.79800
O2592       O  0.73967798  0.52630670  0.53296367    -0.79800
O2593       O  0.76809570  0.58068613  0.52554109    -0.79800
O2594       O  0.79598246  0.92140378  0.48734444    -0.79800
O2595       O  0.75085118  0.95317455  0.53580158    -0.79700
O2596       O  0.76449382  0.52737362  0.45534993    -0.79800
Co2597     Co  0.83161322  0.94628904  0.50829424     1.51500
Co2598     Co  0.80177205  0.55610067  0.50341780     1.51700
Co2599     Co  0.78941894  0.50973707  0.48024124     1.51600
Co2600     Co  0.78782505  0.49640715  0.54006147     1.51500
O2601       O  0.80642649  0.49727751  0.50974629    -1.41700
C2602       C  0.76821667  0.92035487  0.53779042     1.09800
C2603       C  0.74584696  0.55459038  0.46451543     1.09900
C2604       C  0.76180022  0.92972509  0.48119388     1.09900
C2605       C  0.74107668  0.56332121  0.53454057     1.09800
N2606       N  0.95258362  0.74574888  0.66419538    -0.36200
N2607       N  0.92985709  0.69058614  0.63228111    -0.56800
N2608       N  0.92240077  0.75624393  0.60125674    -0.36200
N2609       N  0.94092372  0.81147946  0.63443632    -0.56800
C2610       C  0.95128356  0.71288079  0.67634097     0.27300
C2611       C  0.95664963  0.77719958  0.67715578     0.27300
C2612       C  0.90614279  0.72654855  0.59023815     0.27300
C2613       C  0.91127663  0.79094368  0.59196635     0.27300
C2614       C  0.93895678  0.66399040  0.64761604     0.36000
C2615       C  0.92228818  0.66968036  0.61461075     0.36000
C2616       C  0.96181547  0.82900774  0.64962631     0.36000
C2617       C  0.94347203  0.83471473  0.61732855     0.36000
C2618       C  0.45943403  0.72187484  0.69517776    -0.21500
C2619       C  0.46498986  0.76192876  0.69508795    -0.21500
C2620       C  0.88598086  0.74232027  0.57314441    -0.21500
C2621       C  0.88892125  0.78279602  0.57433317    -0.21500
C2622       C  0.93619451  0.62596659  0.63968297    -0.22600
C2623       C  0.92587257  0.62954563  0.61886920    -0.22600
C2624       C  0.97806996  0.86320113  0.64204527    -0.22600
C2625       C  0.96654721  0.86665750  0.62144946    -0.22600
C2626       C  0.94861554  0.67330663  0.66886521    -0.17900
C2627       C  0.96374536  0.81641064  0.67069328    -0.17900
C2628       C  0.92190210  0.82943242  0.59882456    -0.17900
C2629       C  0.90861012  0.68561900  0.59517205    -0.17900
H2630       H  0.45985424  0.70380695  0.70911565     0.15000
H2631       H  0.46949836  0.78003775  0.70890630     0.15000
H2632       H  0.86982332  0.72642378  0.56131284     0.15000
H2633       H  0.87530061  0.80362967  0.56355964     0.15000
H2634       H  0.94048586  0.59836713  0.64803645     0.13300
H2635       H  0.92078197  0.60521979  0.60818562     0.13300
H2636       H  0.99585341  0.88382197  0.65056728     0.13300
H2637       H  0.97338228  0.89045397  0.61086290     0.13300
H2638       H  0.95559556  0.74647672  0.64818013     0.26500
H2639       H  0.94189389  0.75258192  0.61346244     0.26500
N2640       N  0.69920081  0.74119136  0.60570630    -0.36200
N2641       N  0.68333309  0.68251268  0.63706130    -0.56800
N2642       N  0.67999033  0.74531359  0.66947217    -0.36200
N2643       N  0.70140883  0.80291419  0.63887536    -0.56800
C2644       C  0.70494273  0.70757250  0.59432529     0.27300
C2645       C  0.71450004  0.77121467  0.59483241     0.27300
C2646       C  0.67861041  0.71244220  0.68144402     0.27300
C2647       C  0.68589030  0.77634599  0.68253001     0.27300
C2648       C  0.67628700  0.66134550  0.61943830     0.36000
C2649       C  0.66533665  0.66399959  0.65277154     0.36000
C2650       C  0.70886780  0.82553616  0.62192816     0.36000
C2651       C  0.69632158  0.82788749  0.65538798     0.36000
C2652       C  0.72338821  0.71676149  0.57579728    -0.21500
C2653       C  0.72821611  0.75680592  0.57581318    -0.21500
C2654       C  0.68382929  0.72261491  0.70240930    -0.21500
C2655       C  0.68758623  0.76295051  0.70313909    -0.21500
C2656       C  0.65340410  0.62956485  0.62383900    -0.22600
C2657       C  0.64636408  0.63124111  0.64501209    -0.22600
C2658       C  0.70984249  0.86496491  0.62789921    -0.22600
C2659       C  0.70179561  0.86644116  0.64900499    -0.22600
C2660       C  0.69239302  0.66919155  0.59973604    -0.17900
C2661       C  0.71664279  0.81132631  0.60131617    -0.17900
C2662       C  0.68786093  0.81649123  0.67632776    -0.17900
C2663       C  0.66841661  0.67440459  0.67424273    -0.17900
H2664       H  0.73258599  0.69696375  0.56338015     0.15000
H2665       H  0.74123099  0.77317345  0.56325578     0.15000
H2666       H  0.68362100  0.70318582  0.71591034     0.15000
H2667       H  0.69114601  0.78006469  0.71735819     0.15000
H2668       H  0.64320299  0.60738990  0.61294915     0.13300
H2669       H  0.62966547  0.61038326  0.65374581     0.13300
H2670       H  0.71590436  0.89013366  0.61809889     0.13300
H2671       H  0.70057315  0.89287091  0.65861102     0.13300
H2672       H  0.68304611  0.74428886  0.61930231     0.26500
H2673       H  0.67207359  0.74698165  0.65365567     0.26500
O2674       O  0.53695389  0.95580457  0.28145171    -0.79800
O2675       O  0.60779575  0.98749938  0.21165163    -0.79800
O2676       O  0.01484300  0.95605347  0.23916097    -0.79800
O2677       O  0.66093739  0.97926096  0.27523723    -0.79800
O2678       O  0.52804609  0.99098004  0.20982440    -0.79900
O2679       O  0.60749708  0.98673244  0.29497380    -0.79800
O2680       O  0.61901108  0.95309237  0.24078468    -0.79800
O2681       O  0.96932569  0.97416294  0.27161614    -0.79800
C2682       C  0.99354729  0.95193043  0.28162355     1.09900
C2683       C  0.62397368  0.95821895  0.22113738     1.09800
C2684       C  0.00586440  0.96117785  0.22013318     1.09900
C2685       C  0.64291180  0.97342761  0.29241121     1.09800
O2686       O  0.56440938  0.56968238  0.28322923    -0.79800
O2687       O  0.52046356  0.57144213  0.22545450    -0.79900
O2688       O  0.99572981  0.54689013  0.27956527    -0.79800
O2689       O  0.64534932  0.52971772  0.23730479    -0.79800
O2690       O  0.59930583  0.57067335  0.22617289    -0.79800
O2691       O  0.52204352  0.52015621  0.30621497    -0.79800
O2692       O  0.62215666  0.55266012  0.27440829    -0.79700
O2693       O  0.97730804  0.53614389  0.23811739    -0.79800
Co2694     Co  0.55720784  0.01300239  0.28110049     1.51500
Co2695     Co  0.56773193  0.02889416  0.21961733     1.51700
Co2696     Co  0.00964103  0.00262293  0.25800114     1.51600
Co2697     Co  0.62103542  0.00167240  0.25865489     1.51500
O2698       O  0.56904890  0.01658326  0.25033450    -1.41700
C2699       C  0.59934451  0.57793461  0.28231974     1.09800
C2700       C  0.98834702  0.56693497  0.22829957     1.09900
C2701       C  0.00024924  0.54840303  0.29976524     1.09900
C2702       C  0.63398148  0.55904530  0.22610016     1.09800
O2703       O  0.95796282  0.74444469  0.98942521    -0.79800
O2704       O  0.59962121  0.67250330  0.02273446    -0.79800
O2705       O  0.58674836  0.74519380  0.96347946    -0.79800
O2706       O  0.51390384  0.71019080  0.04665288    -0.79800
O2707       O  0.59749269  0.69168601  0.98151729    -0.79900
O2708       O  0.99846260  0.69374697  0.01494357    -0.79800
O2709       O  0.59453174  0.70352703  0.05246643    -0.79800
O2710       O  0.51017124  0.73154858  0.97142577    -0.79800
C2711       C  0.47275765  0.73068473  0.97300163     1.09900
C2712       C  0.60783350  0.67432230  0.04189227     1.09800
C2713       C  0.60140081  0.71073500  0.96471223     1.09900
C2714       C  0.99456494  0.69088798  0.03476286     1.09800
O2715       O  0.97787624  0.76990056  0.02750457    -0.79800
O2716       O  0.63807487  0.76308834  0.99124440    -0.79900
O2717       O  0.53334566  0.80504335  0.96193559    -0.79800
O2718       O  0.59859323  0.78782748  0.04471048    -0.79800
O2719       O  0.64161097  0.74543387  0.03246423    -0.79800
O2720       O  0.00372890  0.80661250  0.99210780    -0.79800
O2721       O  0.52293036  0.79650773  0.04233099    -0.79700
O2722       O  0.59414081  0.81091956  0.98970135    -0.79800
Co2723     Co  0.50538538  0.74799663  0.00313232     1.51500
Co2724     Co  0.61521207  0.71906331  0.00722834     1.51700
Co2725     Co  0.55169000  0.77193321  0.98383652     1.51600
Co2726     Co  0.55738673  0.74942115  0.04431626     1.51500
O2727       O  0.56205159  0.74526226  0.01205653    -1.41700
C2728       C  0.99169270  0.79398480  0.04042077     1.09800
C2729       C  0.62889949  0.79871812  0.98701506     1.09900
C2730       C  0.50662651  0.82003002  0.97297152     1.09900
C2731       C  0.63294845  0.77618111  0.04316923     1.09800
N2732       N  0.81077026  0.90067017  0.93213995    -0.36200
N2733       N  0.75588216  0.88400815  0.89757911    -0.56800
N2734       N  0.81348730  0.90222439  0.86635236    -0.36200
N2735       N  0.86746257  0.91529853  0.89963084    -0.56800
C2736       C  0.78336566  0.88116693  0.94264874     0.27300
C2737       C  0.84456290  0.89557555  0.94291115     0.27300
C2738       C  0.78590681  0.88526288  0.85441321     0.27300
C2739       C  0.84730022  0.89887342  0.85590388     0.27300
C2740       C  0.73237144  0.88367770  0.91452936     0.36000
C2741       C  0.73288033  0.88817928  0.88018896     0.36000
C2742       C  0.88409643  0.92943944  0.91725779     0.36000
C2743       C  0.88688382  0.93008572  0.88332106     0.36000
C2744       C  0.79945797  0.86595511  0.96113202    -0.21500
C2745       C  0.83823607  0.87355422  0.96082544    -0.21500
C2746       C  0.80233410  0.87043665  0.83616474    -0.21500
C2747       C  0.84115796  0.87879220  0.83716242    -0.21500
C2748       C  0.69434824  0.88713357  0.90779345    -0.22600
C2749       C  0.69471643  0.89110809  0.88629222    -0.22600
C2750       C  0.91395303  0.95395816  0.91220248    -0.22600
C2751       C  0.91541145  0.95483765  0.89061442    -0.22600
C2752       C  0.74456371  0.87631039  0.93570237    -0.17900
C2753       C  0.88062011  0.91047571  0.93668836    -0.17900
C2754       C  0.88241791  0.91631359  0.86248300    -0.17900
C2755       C  0.74590847  0.88658119  0.85892315    -0.17900
H2756       H  0.78526424  0.84995579  0.97340813     0.15000
H2757       H  0.85913347  0.86380784  0.97254198     0.15000
H2758       H  0.78766985  0.85584643  0.82330204     0.15000
H2759       H  0.86217872  0.87167967  0.82523044     0.15000
H2760       H  0.66869912  0.88701091  0.91724353     0.13300
H2761       H  0.66936669  0.89517227  0.87645269     0.13300
H2762       H  0.93428212  0.96722712  0.92299035     0.13300
H2763       H  0.93677130  0.96965281  0.88144430     0.13300
H2764       H  0.80621050  0.91765756  0.91865768     0.26500
H2765       H  0.80819659  0.91970850  0.87955881     0.26500
N2766       N  0.79622141  0.66644442  0.90406778    -0.36200
N2767       N  0.73977132  0.64904174  0.87210694    -0.56800
N2768       N  0.79949521  0.61928430  0.84406830    -0.36200
N2769       N  0.85661150  0.63504246  0.87722072    -0.56800
C2770       C  0.76384942  0.66889712  0.91572559     0.27300
C2771       C  0.82674215  0.66561240  0.91747722     0.27300
C2772       C  0.76756252  0.60594101  0.83411898     0.28500
C2773       C  0.83020157  0.59770199  0.83715242     0.27300
C2774       C  0.71612022  0.66640591  0.88627532     0.36000
C2775       C  0.71882514  0.64518538  0.85423961     0.36000
C2776       C  0.87770848  0.65659469  0.89087853     0.36000
C2777       C  0.87922535  0.62795439  0.86042571     0.36000
C2778       C  0.77404914  0.66990870  0.93689908    -0.21500
C2779       C  0.81373858  0.66778422  0.93799560    -0.21500
C2780       C  0.77822105  0.57609191  0.82023371    -0.21500
C2781       C  0.81777957  0.57088092  0.82215424    -0.21500
C2782       C  0.67990158  0.67288263  0.87741146    -0.22600
C2783       C  0.68204934  0.66106463  0.85695131    -0.22600
C2784       C  0.91357514  0.66381904  0.88255329    -0.22600
C2785       C  0.91475799  0.64509611  0.86336519    -0.22600
C2786       C  0.72572506  0.67315915  0.90759902    -0.17900
C2787       C  0.86583657  0.66695328  0.91138612    -0.17900
C2788       C  0.86915330  0.60349077  0.84331417    -0.17900
C2789       C  0.72933223  0.62054929  0.83722291    -0.17900
H2790       H  0.75502850  0.67285333  0.95019556     0.15000
H2791       H  0.83107099  0.66864088  0.95224773     0.15000
H2792       H  0.75944599  0.55963916  0.80989601     0.15000
H2793       H  0.83537541  0.54981915  0.81349221     0.15000
H2794       H  0.65387108  0.68318898  0.88498342     0.13300
H2795       H  0.65811160  0.66101882  0.84589029     0.13300
H2796       H  0.93677425  0.68007045  0.88975988     0.13300
H2797       H  0.93896462  0.64412642  0.85279192     0.13300
H2798       H  0.79787423  0.67041115  0.88789606     0.26500
H2799       H  0.80070360  0.64405480  0.85375356     0.26500
O2800       O  0.59934014  0.90561933  0.74881972    -0.79800
O2801       O  0.56846250  0.57489557  0.78175424    -0.79800
O2802       O  0.60036901  0.51939875  0.71479818    -0.79800
O2803       O  0.62361799  0.95616785  0.79530531    -0.79800
O2804       O  0.59408227  0.55473226  0.74394720    -0.79900
O2805       O  0.59105752  0.90252167  0.79299522    -0.79800
O2806       O  0.61178024  0.52996368  0.78761915    -0.79800
O2807       O  0.62952519  0.96104580  0.74230724    -0.79800
C2808       C  0.62703142  0.92370290  0.74025057     1.09900
C2809       C  0.60169685  0.56534207  0.78889597     1.09800
C2810       C  0.60612750  0.55128620  0.72487982     1.09900
C2811       C  0.62142721  0.92009093  0.79901542     1.09800
O2812       O  0.50982556  0.93008752  0.78653819    -0.79800
O2813       O  0.52102672  0.58059122  0.74565078    -0.79900
O2814       O  0.55910473  0.94823574  0.72116089    -0.79800
O2815       O  0.53174251  0.52955272  0.80562509    -0.79800
O2816       O  0.49742242  0.53035195  0.77634725    -0.79800
O2817       O  0.51848704  0.92825810  0.74467659    -0.79800
O2818       O  0.54395816  0.95369499  0.81277036    -0.79700
O2819       O  0.52744041  0.52473706  0.72769160    -0.79800
Co2820     Co  0.55492613  0.92059593  0.76826967     1.51500
Co2821     Co  0.54471708  0.53728844  0.75994180     1.51700
Co2822     Co  0.58092602  0.99288720  0.73793924     1.51600
Co2823     Co  0.57988367  0.99231679  0.79803822     1.51500
O2824       O  0.56496960  0.98061527  0.76797490    -1.41700
C2825       C  0.51236265  0.93972257  0.80564572     1.09800
C2826       C  0.51463784  0.56106770  0.72893877     1.09900
C2827       C  0.53133165  0.92674162  0.72630983     1.09900
C2828       C  0.49978157  0.53643669  0.79598263     1.09800
N2829       N  0.81083644  0.61146783  0.15840679    -0.36200
N2830       N  0.75181945  0.61335940  0.12679887    -0.56800
N2831       N  0.80932622  0.62287514  0.09467731    -0.36200
N2832       N  0.86934649  0.61798560  0.12654783    -0.56800
C2833       C  0.78128752  0.59314609  0.16732059     0.27300
C2834       C  0.84315134  0.59631888  0.16718874     0.27300
C2835       C  0.77796776  0.61294963  0.08306973     0.27300
C2836       C  0.84107508  0.61580395  0.08291755     0.27300
C2837       C  0.73215875  0.62163783  0.14455375     0.36000
C2838       C  0.73038108  0.62769293  0.11063677     0.36000
C2839       C  0.88782167  0.62904317  0.14442271     0.36000
C2840       C  0.88848125  0.63366752  0.11027211     0.36000
C2841       C  0.79478087  0.56417414  0.18108752    -0.21500
C2842       C  0.83438073  0.56603261  0.18090329    -0.21500
C2843       C  0.79001370  0.59872789  0.06368321    -0.21500
C2844       C  0.82980782  0.60081952  0.06353461    -0.21500
C2845       C  0.69844835  0.64242800  0.13979818    -0.22600
C2846       C  0.69724453  0.64621968  0.11826341    -0.22600
C2847       C  0.91829905  0.65298413  0.13949898    -0.22600
C2848       C  0.91886175  0.65569820  0.11783220    -0.22600
C2849       C  0.74314109  0.60590605  0.16435384    -0.17900
C2850       C  0.87899523  0.61354874  0.16453411    -0.17900
C2851       C  0.87913485  0.62661483  0.08881760    -0.17900
C2852       C  0.73911196  0.62013748  0.08926551    -0.17900
H2853       H  0.77793867  0.54472194  0.19064700     0.15000
H2854       H  0.85427995  0.54831116  0.19035611     0.15000
H2855       H  0.77202556  0.58869798  0.05081281     0.15000
H2856       H  0.84828029  0.59287687  0.05053033     0.15000
H2857       H  0.67654988  0.65268747  0.15061315     0.13300
H2858       H  0.67394727  0.65997394  0.10936367     0.13300
H2859       H  0.93840235  0.66648052  0.15032284     0.13300
H2860       H  0.93929627  0.67196225  0.10871604     0.13300
H2861       H  0.80890823  0.63690945  0.14912813     0.26500
H2862       H  0.80875944  0.63840336  0.10884278     0.26500
N2863       N  0.81118578  0.86670692  0.10027152    -0.36200
N2864       N  0.75530079  0.87280885  0.13372768    -0.56800
N2865       N  0.81619985  0.88912893  0.16357366    -0.36200
N2866       N  0.87248225  0.87970620  0.13111237    -0.56800
C2867       C  0.78132112  0.84659203  0.09211963     0.27300
C2868       C  0.84306836  0.85428906  0.09002084     0.27300
C2869       C  0.78583631  0.88426321  0.17641345     0.27300
C2870       C  0.84894581  0.88394101  0.17520257     0.27300
C2871       C  0.73184682  0.87083204  0.11670519     0.36000
C2872       C  0.73384614  0.88806942  0.14943192     0.36000
C2873       C  0.89017561  0.88705554  0.11279626     0.36000
C2874       C  0.89404155  0.89638110  0.14639172     0.36000
C2875       C  0.79428019  0.82137728  0.07636810    -0.21500
C2876       C  0.83340887  0.82620887  0.07505135    -0.21500
C2877       C  0.79918476  0.87570569  0.19653530    -0.21500
C2878       C  0.83901602  0.87483462  0.19571776    -0.21500
C2879       C  0.69525700  0.88486049  0.12148934    -0.22600
C2880       C  0.69661792  0.89637324  0.14224477    -0.22600
C2881       C  0.92306345  0.90851072  0.11632115    -0.22600
C2882       C  0.92496672  0.91539371  0.13761846    -0.22600
C2883       C  0.74249519  0.85239420  0.09776506    -0.17900
C2884       C  0.88029315  0.86870117  0.09370946    -0.17900
C2885       C  0.88679564  0.89240060  0.16811015    -0.17900
C2886       C  0.74671378  0.89092013  0.17051853    -0.17900
H2887       H  0.77729544  0.80170421  0.06675787     0.15000
H2888       H  0.85249162  0.81079657  0.06431039     0.15000
H2889       H  0.78199947  0.87104858  0.21036901     0.15000
H2890       H  0.85842169  0.86964076  0.20891851     0.15000
H2891       H  0.67021255  0.88606708  0.11119046     0.13300
H2892       H  0.67261214  0.90813384  0.15117802     0.13300
H2893       H  0.94366004  0.91768819  0.10475696     0.13300
H2894       H  0.94699008  0.93193491  0.14569268     0.13300
H2895       H  0.80957064  0.89007784  0.11095242     0.26500
H2896       H  0.81435390  0.90105765  0.14851259     0.26500
C2897       C  0.63478712  0.57432941  0.82209335    -0.11900
C2898       C  0.62727305  0.58987409  0.80197037     0.05100
C2899       C  0.65432032  0.61571669  0.79330841    -0.07200
C2900       C  0.68846837  0.62411178  0.80448486    -0.07900
C2901       C  0.69673858  0.60627823  0.82397128    -0.02500
C2902       C  0.66919990  0.58140200  0.83282183     0.04300
N2903       N  0.67580749  0.56288476  0.85277433     0.66800
H2904       H  0.61505800  0.55352674  0.82882679     0.15700
H2905       H  0.70844515  0.64489404  0.79801671     0.15400
N2906       N  0.64773449  0.63400430  0.77337984     0.74500
O2907       O  0.65922240  0.57687496  0.86878889    -0.38900
O2908       O  0.68861824  0.52772819  0.85326791    -0.38900
O2909       O  0.63618048  0.66962451  0.77303569    -0.39600
O2910       O  0.66471489  0.61996880  0.75750602    -0.39600
C2911       C  0.91216905  0.60122725  0.81229844    -0.11900
C2912       C  0.90127738  0.58445176  0.83122517     0.05100
C2913       C  0.92373687  0.55285463  0.83960430    -0.07200
C2914       C  0.95689310  0.53880819  0.82895342    -0.07900
C2915       C  0.96756693  0.55525817  0.80953723    -0.02500
C2916       C  0.94470345  0.58716864  0.80153299     0.04300
N2917       N  0.95398387  0.60640911  0.78246872     0.66800
H2918       H  0.89567402  0.62616567  0.80599262     0.15700
H2919       H  0.97356419  0.51427161  0.83552008     0.15400
N2920       N  0.91244081  0.53447971  0.85871538     0.74500
O2921       O  0.93188476  0.60122815  0.76692316    -0.38900
O2922       O  0.97290415  0.63778353  0.78346232    -0.38900
O2923       O  0.88279562  0.51356429  0.85866253    -0.39600
O2924       O  0.92563644  0.54697384  0.87600689    -0.39600
C2925       C  0.68484214  0.86367271  0.84004879    -0.11900
C2926       C  0.71707669  0.88844678  0.84077776     0.05100
C2927       C  0.71975373  0.91739802  0.82488665    -0.07200
C2928       C  0.69000720  0.92259705  0.81003362    -0.07900
C2929       C  0.65517758  0.90203141  0.81110868    -0.02500
C2930       C  0.65336732  0.87112436  0.82607285     0.04300
N2931       N  0.61886030  0.84977671  0.82900941     0.66800
H2932       H  0.68255751  0.84040848  0.85162622     0.15700
H2933       H  0.69305057  0.94591952  0.79854093     0.15400
N2934       N  0.75052031  0.94480813  0.82470729     0.74500
O2935       O  0.61902097  0.81324190  0.82498845    -0.38900
O2936       O  0.59379646  0.86379788  0.84133066    -0.38900
O2937       O  0.77583838  0.94155098  0.81069629    -0.39600
O2938       O  0.74603655  0.97756006  0.83396735    -0.39600
C2939       C  0.90919934  0.93912010  0.82815268    -0.11900
C2940       C  0.91544533  0.92053152  0.84754912     0.05100
C2941       C  0.95355415  0.90835092  0.85305756    -0.07200
C2942       C  0.98473849  0.91879851  0.84026810    -0.07900
C2943       C  0.97841992  0.93742030  0.82070863    -0.02500
C2944       C  0.93964294  0.94571626  0.81436796     0.04300
N2945       N  0.93003781  0.95928124  0.79365947     0.66800
H2946       H  0.88020311  0.94801905  0.82342282     0.15700
H2947       H  0.51091111  0.89941745  0.84269019     0.15400
N2948       N  0.96052783  0.88363340  0.87103581     0.74500
O2949       O  0.92006923  0.93403426  0.78012809    -0.38900
O2950       O  0.91888536  0.99470672  0.79119968    -0.38900
O2951       O  0.94321013  0.85138711  0.87269737    -0.39600
O2952       O  0.98218880  0.89496680  0.88582672    -0.39600
C2953       C  0.63716233  0.62386841  0.06704288    -0.11900
C2954       C  0.64128331  0.65028427  0.05020228     0.05100
C2955       C  0.67915310  0.65726994  0.04297586    -0.07200
C2956       C  0.71109547  0.64573496  0.05527536    -0.07900
C2957       C  0.70685622  0.62276304  0.07328093    -0.02500
C2958       C  0.67004920  0.60747959  0.07739938     0.04300
N2959       N  0.66628296  0.57592393  0.09222999     0.66800
H2960       H  0.60863823  0.61570479  0.07191798     0.15700
H2961       H  0.73918909  0.65623951  0.05104975     0.15400
N2962       N  0.68626976  0.67627959  0.02338917     0.74500
O2963       O  0.64030937  0.57731524  0.10593818    -0.38900
O2964       O  0.68985239  0.54695247  0.09200026    -0.38900
O2965       O  0.70568955  0.70736598  0.02344061    -0.39600
O2966       O  0.68691410  0.65502481  0.00710507    -0.39600
C2967       C  0.89731143  0.66367667  0.05651305    -0.11900
C2968       C  0.90794519  0.63600926  0.07204796     0.05100
C2969       C  0.94650497  0.62117962  0.07227041    -0.07200
C2970       C  0.97389193  0.63721453  0.05870219    -0.07900
C2971       C  0.96363689  0.66675389  0.04409332    -0.02500
C2972       C  0.92432518  0.67876882  0.04253759     0.04300
N2973       N  0.91149261  0.70878674  0.02815978     0.66800
H2974       H  0.86801944  0.67541119  0.05589903     0.15700
H2975       H  0.00375341  0.62747090  0.06011983     0.15400
N2976       N  0.95857687  0.58994119  0.08610737     0.74500
O2977       O  0.89551257  0.69835497  0.01116547    -0.38900
O2978       O  0.40107324  0.73020018  0.02535863    -0.38900
O2979       O  0.95958705  0.55505127  0.07906197    -0.39600
O2980       O  0.97887439  0.59802219  0.10207191    -0.39600
C2981       C  0.67606260  0.83273106  0.05119970    -0.11900
C2982       C  0.66187228  0.79558669  0.05661730     0.05100
C2983       C  0.67183319  0.77920965  0.07634206    -0.07200
C2984       C  0.69732219  0.79855913  0.08981238    -0.07900
C2985       C  0.71235875  0.83496226  0.08417468    -0.02500
C2986       C  0.70117807  0.85252611  0.06494274     0.04300
N2987       N  0.71448800  0.89083881  0.05961772     0.66800
H2988       H  0.66730436  0.84645832  0.03646574     0.15700
H2989       H  0.70567714  0.78500715  0.10466660     0.15400
N2990       N  0.65597661  0.74288764  0.08294306     0.74500
O2991       O  0.74606578  0.89391451  0.05021282    -0.38900
O2992       O  0.69969678  0.92086976  0.06844257    -0.38900
O2993       O  0.67518583  0.71121734  0.08075493    -0.39600
O2994       O  0.62236164  0.74218263  0.09023240    -0.39600
C2995       C  0.94275660  0.84659796  0.04625806    -0.11900
C2996       C  0.96623891  0.81611719  0.05444812     0.05100
C2997       C  0.96339823  0.80543183  0.07576088    -0.07200
C2998       C  0.93642135  0.82466955  0.08839597    -0.07900
C2999       C  0.91204048  0.85444390  0.08017474    -0.02500
C3000       C  0.91582164  0.86612542  0.05901178     0.04300
N3001       N  0.89281115  0.89760451  0.05025400     0.66800
H3002       H  0.94506153  0.85493266  0.02987277     0.15700
H3003       H  0.93326405  0.81506552  0.10454009     0.15400
N3004       N  0.45422268  0.74590629  0.07504449     0.74500
O3005       O  0.86508601  0.88938652  0.03812809    -0.38900
O3006       O  0.90677808  0.93167146  0.04946505    -0.38900
O3007       O  0.48278275  0.73675598  0.08663669    -0.39600
O3008       O  0.42751380  0.72156639  0.07307271    -0.39600
C3009       C  0.68484950  0.87983791  0.95807447    -0.11900
C3010       C  0.71647574  0.85763750  0.95034305     0.05100
C3011       C  0.72082710  0.81764785  0.95657433    -0.07200
C3012       C  0.69278760  0.80088694  0.96933016    -0.07900
C3013       C  0.65951375  0.82211437  0.97610386    -0.02500
C3014       C  0.65639810  0.86258302  0.97062582     0.04300
N3015       N  0.62510169  0.88695335  0.97772261     0.66800
H3016       H  0.68187399  0.91085090  0.95401410     0.15700
H3017       H  0.69672344  0.76992189  0.97324633     0.15400
N3018       N  0.75381103  0.79357163  0.95064264     0.74500
O3019       O  0.62936069  0.90649792  0.99448365    -0.38900
O3020       O  0.59951466  0.89800405  0.96461846    -0.38900
O3021       O  0.76931384  0.77022909  0.96387207    -0.39600
O3022       O  0.76890614  0.79676872  0.93277109    -0.39600
C3023       C  0.95892749  0.87705167  0.97630879    -0.11900
C3024       C  0.98034395  0.84999240  0.96379552     0.05100
C3025       C  0.97200092  0.84870301  0.94193664    -0.07200
C3026       C  0.94064847  0.87013219  0.93365492    -0.07900
C3027       C  0.91727877  0.89428218  0.94632234    -0.02500
C3028       C  0.92849453  0.90037458  0.96741283     0.04300
N3029       N  0.91182396  0.93259601  0.97900496     0.66800
H3030       H  0.96609726  0.88037282  0.99283371     0.15700
H3031       H  0.93309967  0.86585971  0.91723069     0.15400
N3032       N  0.48876254  0.81901988  0.92793907     0.74500
O3033       O  0.88295058  0.92721847  0.99041418    -0.38900
O3034       O  0.92069480  0.96742621  0.97429491    -0.38900
O3035       O  0.47397677  0.78610380  0.92390275    -0.39600
O3036       O  0.51382953  0.83212149  0.91572239    -0.39600
C3037       C  0.68043715  0.65344914  0.93564830    -0.11900
C3038       C  0.69362642  0.68293352  0.92218542     0.05100
C3039       C  0.67362573  0.71966912  0.92132226    -0.07200
C3040       C  0.64252784  0.72681847  0.93456431    -0.07900
C3041       C  0.62987643  0.69796619  0.94864632    -0.02500
C3042       C  0.64865654  0.66041142  0.94870250     0.04300
N3043       N  0.63491247  0.62845856  0.96100581     0.66800
H3044       H  0.69445983  0.62451011  0.93566512     0.15700
H3045       H  0.62872620  0.75583807  0.93400031     0.15400
N3046       N  0.68336805  0.74966175  0.90657811     0.74500
O3047       O  0.60863674  0.60735637  0.95343792    -0.38900
O3048       O  0.65574737  0.61465773  0.97573486    -0.38900
O3049       O  0.66145974  0.75582716  0.89089465    -0.39600
O3050       O  0.70474263  0.77712693  0.91259039    -0.39600
C3051       C  0.88903514  0.72083209  0.93434670    -0.11900
C3052       C  0.89472757  0.68256973  0.92671365     0.05100
C3053       C  0.92720805  0.66026376  0.93376334    -0.07200
C3054       C  0.95412904  0.67736616  0.94774430    -0.07900
C3055       C  0.94762497  0.71565407  0.95594265    -0.02500
C3056       C  0.91392885  0.73688090  0.94932731     0.04300
N3057       N  0.40135221  0.77133136  0.95988919     0.66800
H3058       H  0.86397344  0.73804095  0.92916730     0.15700
H3059       H  0.97877299  0.65988970  0.95319750     0.15400
N3060       N  0.93139272  0.61949775  0.92805417     0.74500
O3061       O  0.39723937  0.80214797  0.94896204    -0.38900
O3062       O  0.38128884  0.76833039  0.97620524    -0.38900
O3063       O  0.95477879  0.60922499  0.91391965    -0.39600
O3064       O  0.90728790  0.59503925  0.93449682    -0.39600
C3065       C  0.98511876  0.90899135  0.19511052    -0.11900
C3066       C  0.97509291  0.93802727  0.20987542     0.05100
C3067       C  0.93558077  0.94840525  0.21221135    -0.07200
C3068       C  0.90794612  0.93223921  0.19883208    -0.07900
C3069       C  0.91764873  0.90380322  0.18370467    -0.02500
C3070       C  0.95686933  0.89080037  0.18258236     0.04300
N3071       N  0.96872038  0.85882085  0.16924840     0.66800
H3072       H  0.01514560  0.90042627  0.19322688     0.15700
H3073       H  0.87845164  0.94310002  0.20000636     0.15400
N3074       N  0.50882640  0.95481932  0.17164264     0.74500
O3075       O  0.97066299  0.82455315  0.17701980    -0.38900
O3076       O  0.98898527  0.86607623  0.15342048    -0.38900
O3077       O  0.53393491  0.93008918  0.16539254    -0.39600
O3078       O  0.50127888  0.98457035  0.16029647    -0.39600
C3079       C  0.68970417  0.88101805  0.19396539    -0.11900
C3080       C  0.71860708  0.90553593  0.18641020     0.05100
C3081       C  0.71663399  0.94609354  0.19093821    -0.07200
C3082       C  0.68594751  0.96168286  0.20256278    -0.07900
C3083       C  0.65638070  0.93770378  0.21000308    -0.02500
C3084       C  0.65866163  0.89670940  0.20571406     0.04300
N3085       N  0.62845956  0.87112029  0.21147458     0.66800
H3086       H  0.69028594  0.84992707  0.18985375     0.15700
H3087       H  0.68495078  0.99314186  0.20536631     0.15400
N3088       N  0.74433964  0.97216482  0.18245759     0.74500
O3089       O  0.60284339  0.86331310  0.19793782    -0.38900
O3090       O  0.63402834  0.84772942  0.22669171    -0.38900
O3091       O  0.73960006  0.98526918  0.16401024    -0.39600
O3092       O  0.73011875  0.48684624  0.16087155    -0.39600
C3093       C  0.92523365  0.59772286  0.21883246    -0.11900
C3094       C  0.96240831  0.58692232  0.21319008     0.05100
C3095       C  0.97353918  0.59196626  0.19216043    -0.07200
C3096       C  0.94614429  0.60013355  0.17665413    -0.07900
C3097       C  0.90832772  0.61020888  0.18190526    -0.02500
C3098       C  0.89908977  0.61231585  0.20368599     0.04300
N3099       N  0.86357323  0.62850088  0.21104191     0.66800
H3100       H  0.91673158  0.59586011  0.23511734     0.15700
H3101       H  0.95504152  0.59832126  0.16042443     0.15400
N3102       N  0.51163243  0.58250216  0.18254879     0.74500
O3103       O  0.84360263  0.60660838  0.22236475    -0.38900
O3104       O  0.86102472  0.66538790  0.21384190    -0.38900
O3105       O  0.53342087  0.11431458  0.18064081    -0.39600
O3106       O  0.52770056  0.55019341  0.17755680    -0.39600
C3107       C  0.69467654  0.58990157  0.21729432    -0.11900
C3108       C  0.65962812  0.57548830  0.21059230     0.05100
C3109       C  0.65089182  0.57434586  0.18890073    -0.07200
C3110       C  0.67901373  0.58274651  0.17439471    -0.07900
C3111       C  0.71415145  0.59817534  0.18082465    -0.02500
C3112       C  0.72110425  0.60344601  0.20273690     0.04300
N3113       N  0.75417353  0.62268270  0.21084672     0.66800
H3114       H  0.70086045  0.59213894  0.23401314     0.15700
H3115       H  0.67248362  0.57824306  0.15786784     0.15400
N3116       N  0.61272064  0.57025421  0.18108237     0.74500
O3117       O  0.75644087  0.65954327  0.20841384    -0.38900
O3118       O  0.77155668  0.60681952  0.22628525    -0.38900
O3119       O  0.59654396  0.60124545  0.17403076    -0.39600
O3120       O  0.62675532  0.01492742  0.17381271    -0.39600
C3121       C  0.62443837  0.65247933  0.70189779    -0.11900
C3122       C  0.65703047  0.64465191  0.68994473     0.05100
C3123       C  0.67608778  0.60764731  0.69162797    -0.07200
C3124       C  0.65963166  0.57745159  0.70342518    -0.07900
C3125       C  0.62585576  0.58477465  0.71492954    -0.02500
C3126       C  0.60938248  0.62368988  0.71488853     0.04300
N3127       N  0.57579458  0.63444849  0.72654535     0.66800
H3128       H  0.60996853  0.68114375  0.70078069     0.15700
H3129       H  0.67328571  0.54835329  0.70370340     0.15400
N3130       N  0.71223359  0.60089545  0.68154992     0.74500
O3131       O  0.58022928  0.64620159  0.74521657    -0.38900
O3132       O  0.54642410  0.64685860  0.71649783    -0.38900
O3133       O  0.74113287  0.62025666  0.68738189    -0.39600
O3134       O  0.71371404  0.58114451  0.66472836    -0.39600
C3135       C  0.69861764  0.85653525  0.70988156    -0.11900
C3136       C  0.67627068  0.84802408  0.69187200     0.05100
C3137       C  0.64104585  0.86859781  0.68894082    -0.07200
C3138       C  0.62853407  0.89633424  0.70387610    -0.07900
C3139       C  0.64842672  0.90206512  0.72309015    -0.02500
C3140       C  0.68452907  0.88228058  0.72576657     0.04300
N3141       N  0.70663359  0.88644963  0.74467735     0.66800
H3142       H  0.72614665  0.84138796  0.71219358     0.15700
H3143       H  0.60125662  0.91089294  0.70085349     0.15400
N3144       N  0.61575761  0.85852903  0.67188303     0.74500
O3145       O  0.69870780  0.86541709  0.76034068    -0.38900
O3146       O  0.73955714  0.90136313  0.74370517    -0.38900
O3147       O  0.59989452  0.82533505  0.67172245    -0.39600
O3148       O  0.61426672  0.87966935  0.65556231    -0.39600
C3149       C  0.49461270  0.61436619  0.67722805    -0.11900
C3150       C  0.96035595  0.64009407  0.68346934     0.05100
C3151       C  0.94028923  0.63095579  0.70201144    -0.07200
C3152       C  0.95684970  0.60436825  0.71663326    -0.07900
C3153       C  0.49312673  0.58068295  0.71115053    -0.02500
C3154       C  0.50939372  0.58517451  0.69096335     0.04300
N3155       N  0.54193285  0.56206873  0.68429029     0.66800
H3156       H  0.50931792  0.61952058  0.66256944     0.15700
H3157       H  0.94200305  0.59902638  0.73098800     0.15400
N3158       N  0.90233464  0.64644350  0.70576213     0.74500
O3159       O  0.53606330  0.52819597  0.67674989    -0.38900
O3160       O  0.57188264  0.57968405  0.67889439    -0.38900
O3161       O  0.87410069  0.62630940  0.69973762    -0.39600
O3162       O  0.89725152  0.67148254  0.72025845    -0.39600
C3163       C  0.52297524  0.83235591  0.69494989    -0.11900
C3164       C  0.97698113  0.84552459  0.68645606     0.05100
C3165       C  0.95519410  0.88005782  0.69102227    -0.07200
C3166       C  0.97168020  0.90996221  0.70332761    -0.07900
C3167       C  0.51686899  0.89663355  0.71176214    -0.02500
C3168       C  0.53512989  0.85884270  0.71032466     0.04300
N3169       N  0.56231843  0.84481155  0.72585276     0.66800
H3170       H  0.53763218  0.80391747  0.69335372     0.15700
H3171       H  0.95558995  0.93719935  0.70619862     0.15400
N3172       N  0.91510244  0.88230951  0.68568540     0.74500
O3173       O  0.55173418  0.84324023  0.74474768    -0.38900
O3174       O  0.59061286  0.82334797  0.72026533    -0.38900
O3175       O  0.89149362  0.86474853  0.69713882    -0.39600
O3176       O  0.90442494  0.89390143  0.66768954    -0.39600
C3177       C  0.83895842  0.61390712  0.57079601    -0.11900
C3178       C  0.86052421  0.59712507  0.55421959     0.05100
C3179       C  0.89733931  0.61251599  0.55012417    -0.07200
C3180       C  0.91258598  0.64177160  0.56337145    -0.07900
C3181       C  0.89113096  0.65733682  0.58008444    -0.02500
C3182       C  0.85363065  0.64420824  0.58333124     0.04300
N3183       N  0.83014066  0.66199173  0.59924058     0.66800
H3184       H  0.81005153  0.60413045  0.57377232     0.15700
H3185       H  0.94133510  0.65232444  0.56064839     0.15400
N3186       N  0.91983780  0.59893912  0.53279439     0.74500
O3187       O  0.81461699  0.69550784  0.59592749    -0.38900
O3188       O  0.83206387  0.64881935  0.61778125    -0.38900
O3189       O  0.91807496  0.61822583  0.51582457    -0.39600
O3190       O  0.94885983  0.57676149  0.53636297    -0.39600
C3191       C  0.87748110  0.92996080  0.58273503    -0.11900
C3192       C  0.88267897  0.92940813  0.56100907     0.05100
C3193       C  0.90452235  0.89773376  0.55215362    -0.07200
C3194       C  0.91899672  0.86711452  0.56498346    -0.07900
C3195       C  0.91033849  0.86562790  0.58639818    -0.02500
C3196       C  0.89052619  0.89865702  0.59543200     0.04300
N3197       N  0.88260422  0.90140017  0.61737494     0.66800
H3198       H  0.86126423  0.95409607  0.58989870     0.15700
H3199       H  0.93529435  0.84300900  0.55785612     0.15400
N3200       N  0.90978366  0.89391113  0.53003323     0.74500
O3201       O  0.90406163  0.92293388  0.62842916    -0.38900
O3202       O  0.84835901  0.89717350  0.62321704    -0.38900
O3203       O  0.94366326  0.89464136  0.52315713    -0.39600
O3204       O  0.88424786  0.87694317  0.51923433    -0.39600
C3205       C  0.73040274  0.57627143  0.57202978    -0.11900
C3206       C  0.71943109  0.58433445  0.55120103     0.05100
C3207       C  0.69345385  0.61605450  0.54721146    -0.07200
C3208       C  0.68182849  0.64104399  0.56368064    -0.07900
C3209       C  0.69701935  0.63615091  0.58408879    -0.02500
C3210       C  0.71959541  0.60167554  0.58844832     0.04300
N3211       N  0.73316403  0.59245046  0.60918833     0.66800
H3212       H  0.74971948  0.55143758  0.57545460     0.15700
H3213       H  0.66270283  0.66600285  0.56022903     0.15400
N3214       N  0.67719941  0.62254239  0.52683178     0.74500
O3215       O  0.71536835  0.56707614  0.61958883    -0.38900
O3216       O  0.76795016  0.59848350  0.61380410    -0.38900
O3217       O  0.64294440  0.61215162  0.52367816    -0.39600
O3218       O  0.69084214  0.64916629  0.51541594    -0.39600
C3219       C  0.78039894  0.86719955  0.56402869    -0.11900
C3220       C  0.75337415  0.89085956  0.55284630     0.05100
C3221       C  0.71393841  0.88881489  0.55829368    -0.07200
C3222       C  0.70261532  0.86315370  0.57427515    -0.07900
C3223       C  0.72982584  0.84002215  0.58537247    -0.02500
C3224       C  0.76899794  0.84231278  0.58024029     0.04300
N3225       N  0.79735781  0.81848909  0.59099226     0.66800
H3226       H  0.81083021  0.86869825  0.56058393     0.15700
H3227       H  0.67235948  0.86124753  0.57806349     0.15400
N3228       N  0.68484026  0.91220061  0.54782261     0.74500
O3229       O  0.81732328  0.83324921  0.60555942    -0.38900
O3230       O  0.80681002  0.78508190  0.58367509    -0.38900
O3231       O  0.66261048  0.89560010  0.53486130    -0.39600
O3232       O  0.67411572  0.94451578  0.55605173    -0.39600
C3233       C  0.65419792  0.61772803  0.29636059    -0.11900
C3234       C  0.61447215  0.61505736  0.29210770     0.05100
C3235       C  0.59009581  0.64601540  0.29949197    -0.07200
C3236       C  0.60436082  0.67484426  0.31325890    -0.07900
C3237       C  0.64335787  0.67530507  0.31901881    -0.02500
C3238       C  0.66880146  0.64766646  0.30940389     0.04300
N3239       N  0.70935451  0.64842067  0.31337352     0.66800
H3240       H  0.67404258  0.59537648  0.29037466     0.15700
H3241       H  0.58447988  0.69633177  0.32005542     0.15400
N3242       N  0.55034943  0.64809594  0.29392160     0.74500
O3243       O  0.72421546  0.62445398  0.32647790    -0.38900
O3244       O  0.73062611  0.66367461  0.29978526    -0.38900
O3245       O  0.52632338  0.64098359  0.30796629    -0.39600
O3246       O  0.53979280  0.66878771  0.27831410    -0.39600
C3247       C  0.65541465  0.91080101  0.34178416    -0.11900
C3248       C  0.67867047  0.87939859  0.33428017     0.05100
C3249       C  0.69640411  0.88386411  0.31453350    -0.07200
C3250       C  0.68682698  0.91668857  0.30184719    -0.07900
C3251       C  0.66061854  0.94629877  0.30857175    -0.02500
C3252       C  0.64709007  0.94436046  0.32943743     0.04300
N3253       N  0.62476540  0.97597371  0.33839925     0.66800
H3254       H  0.64272170  0.90884527  0.35723100     0.15700
H3255       H  0.69865443  0.91785312  0.28616915     0.15400
N3256       N  0.72418764  0.85558113  0.30703512     0.74500
O3257       O  0.58947217  0.97109926  0.34182148    -0.38900
O3258       O  0.64203109  0.00302256  0.34812075    -0.38900
O3259       O  0.71473096  0.83239264  0.29238563    -0.39600
O3260       O  0.75944767  0.86209876  0.31012750    -0.39600
C3261       C  0.74670587  0.60116098  0.43505218    -0.11900
C3262       C  0.72523334  0.58460303  0.45123517     0.05100
C3263       C  0.68673424  0.59784188  0.45388592    -0.07200
C3264       C  0.67126747  0.62835717  0.44097060    -0.07900
C3265       C  0.69361498  0.64584859  0.42535897    -0.02500
C3266       C  0.73151215  0.63135754  0.42230333     0.04300
N3267       N  0.75543278  0.64757579  0.40650872     0.66800
H3268       H  0.77629225  0.59139199  0.43265709     0.15700
H3269       H  0.64165445  0.63823613  0.44301822     0.15400
N3270       N  0.66219830  0.57919984  0.46849510     0.74500
O3271       O  0.77494149  0.67760578  0.41080419    -0.38900
O3272       O  0.76421069  0.62677034  0.39070865    -0.38900
O3273       O  0.64663297  0.59996136  0.48263033    -0.39600
O3274       O  0.64716757  0.54690203  0.46340082    -0.39600
C3275       C  0.74031672  0.83502696  0.45061297    -0.11900
C3276       C  0.70516867  0.84470510  0.44096192     0.05100
C3277       C  0.68539437  0.87958738  0.44701911    -0.07200
C3278       C  0.70319932  0.90657227  0.46080712    -0.07900
C3279       C  0.74023044  0.89840935  0.46938087    -0.02500
C3280       C  0.75769847  0.86079418  0.46485319     0.04300
N3281       N  0.79391271  0.84831715  0.47378957     0.66800
H3282       H  0.75534416  0.80779871  0.44633869     0.15700
H3283       H  0.68838684  0.93421068  0.46442941     0.15400
N3284       N  0.64715152  0.88742766  0.43933653     0.74500
O3285       O  0.82382394  0.85097507  0.46285236    -0.38900
O3286       O  0.79411364  0.82420646  0.48891000    -0.38900
O3287       O  0.61967052  0.86857940  0.44698523    -0.39600
O3288       O  0.64215397  0.90534024  0.42210198    -0.39600
C3289       C  0.99244936  0.58670113  0.33320565    -0.11900
C3290       C  0.98045050  0.58020498  0.31229395     0.05100
C3291       C  0.95333442  0.60744115  0.30318468    -0.07200
C3292       C  0.93940095  0.63983915  0.31484729    -0.07900
C3293       C  0.95333006  0.64743996  0.33515483    -0.02500
C3294       C  0.98006562  0.62037046  0.34439229     0.04300
N3295       N  0.99780673  0.62855392  0.36427701     0.66800
H3296       H  0.01383771  0.56715290  0.34047118     0.15700
H3297       H  0.91881055  0.66031306  0.30759974     0.15400
N3298       N  0.94150196  0.60462546  0.28167154     0.74500
O3299       O  0.99057499  0.60701612  0.37985109    -0.38900
O3300       O  0.02744756  0.64947362  0.36481038    -0.38900
O3301       O  0.90907633  0.59042289  0.27732979    -0.39600
O3302       O  0.95755919  0.62604141  0.26827130    -0.39600
C3303       C  0.99583459  0.86350519  0.31903118    -0.11900
C3304       C  0.95703559  0.85443543  0.32012454     0.05100
C3305       C  0.93040784  0.87403162  0.30669305    -0.07200
C3306       C  0.94261344  0.90488684  0.29363513    -0.07900
C3307       C  0.98162583  0.91576022  0.29332188    -0.02500
C3308       C  0.00847656  0.89292839  0.30555259     0.04300
N3309       N  0.04878712  0.89983752  0.30536555     0.66800
H3310       H  0.01655292  0.84802826  0.32911107     0.15700
H3311       H  0.92143298  0.92075040  0.28406367     0.15400
N3312       N  0.89113531  0.86233093  0.30607631     0.74500
O3313       O  0.06366689  0.91593362  0.32127293    -0.38900
O3314       O  0.57381390  0.86213042  0.28651626    -0.38900
O3315       O  0.86893275  0.87246831  0.32079766    -0.39600
O3316       O  0.88160872  0.83458282  0.29393112    -0.39600
C3317       C  0.87705854  0.61129206  0.45199736    -0.11900
C3318       C  0.84423952  0.62281968  0.46314580     0.05100
C3319       C  0.82905445  0.66172672  0.46046611    -0.07200
C3320       C  0.84510193  0.68689255  0.44559312    -0.07900
C3321       C  0.87772359  0.67514746  0.43405573    -0.02500
C3322       C  0.89463167  0.63734937  0.43816047     0.04300
N3323       N  0.93051078  0.62532533  0.42914581     0.66800
H3324       H  0.88993195  0.58218862  0.45450793     0.15700
H3325       H  0.83185501  0.71579489  0.44297912     0.15400
N3326       N  0.79751127  0.67627252  0.47278272     0.74500
O3327       O  0.96112872  0.63279663  0.43911896    -0.38900
O3328       O  0.93097180  0.59744049  0.41593707    -0.38900
O3329       O  0.80421763  0.69439460  0.48976156    -0.39600
O3330       O  0.76363579  0.66586232  0.46852862    -0.39600
C3331       C  0.92386712  0.89446854  0.43893496    -0.11900
C3332       C  0.89896289  0.87800025  0.42401024     0.05100
C3333       C  0.86129891  0.89342714  0.42185878    -0.07200
C3334       C  0.84858849  0.92407323  0.43495073    -0.07900
C3335       C  0.87223127  0.93907883  0.45118046    -0.02500
C3336       C  0.91083646  0.92444794  0.45268074     0.04300
N3337       N  0.93704402  0.93827536  0.46832634     0.66800
H3338       H  0.95315333  0.88298566  0.44042517     0.15700
H3339       H  0.81881252  0.93394054  0.43330585     0.15400
N3340       N  0.83464454  0.87584715  0.40751738     0.74500
O3341       O  0.94620234  0.91531255  0.48322166    -0.38900
O3342       O  0.96018984  0.96483657  0.46338699    -0.38900
O3343       O  0.81847342  0.84427414  0.41257091    -0.39600
O3344       O  0.83256899  0.88766075  0.38871967    -0.39600
loop_ 
_geom_bond_atom_site_label_1 
_geom_bond_atom_site_label_2 
_geom_bond_distance 
_geom_bond_site_symmetry_2 
_ccdc_geom_bond_type 
N1            C6   1.358       .  A
N1            C5   1.354       .  A
N1           H33   1.040       .  S
N2            C9   1.353       .  A
N2           C10   1.355       .  A
N3            C8   1.358       .  A
N3            C7   1.359       .  A
N3           H34   1.038       .  S
N4           C11   1.356       .  A
N4           C12   1.352       .  A
C5           C13   1.388       .  A
C5           C21   1.419       .  A
C6           C22   1.422       .  A
C6           C14   1.386       .  A
C7           C15   1.387       .  A
C7           C24   1.427       .  A
C8           C23   1.425       .  A
C8           C16   1.386       .  A
C9           C21   1.419       .  A
C9           C17   1.387       .  A
C10          C24   1.421       .  A
C10          C18   1.388       .  A
C11          C19   1.386       .  A
C11          C22   1.420       .  A
C12          C20   1.384       .  A
C12          C23   1.415       .  A
C13          C14   1.378       .  A
C13          H25   1.082       .  S
C14          H26   1.082       .  S
C15          C16   1.378       .  A
C15          H27   1.082       .  S
C16          H28   1.080       .  S
C17          C18   1.373       .  A
C17          H29   1.083       .  S
C18          H30   1.082       .  S
C19          C20   1.374       .  A
C19          H31   1.081       .  S
C20          H32   1.082       .  S
C21         C824   1.490       .  S
C22         C813   1.512       .  S
C23         C785   1.499       .  S
C24         C796   1.504       .  S
N35          C40   1.351       .  A
N35          C39   1.352       .  A
N35          H67   1.033       .  S
N36          C43   1.356       .  A
N36          C44   1.353       .  A
N37          C42   1.359       .  A
N37          C41   1.357       .  A
N37          H68   1.034       .  S
N38          C45   1.351       .  A
N38          C46   1.352       .  A
C39          C47   1.388       .  A
C39          C55   1.413       .  A
C40          C56   1.412       .  A
C40          C48   1.387       .  A
C41          C49   1.390       .  A
C41          C58   1.427       .  A
C42          C57   1.423       .  A
C42          C50   1.385       .  A
C43          C55   1.417       .  A
C43          C51   1.383       .  A
C44          C58   1.424       .  A
C44          C52   1.390       .  A
C45          C53   1.388       .  A
C45          C56   1.415       .  A
C46          C54   1.385       .  A
C46          C57   1.412       .  A
C47          C48   1.373       .  A
C47          H59   1.080       .  S
C48          H60   1.083       .  S
C49          C50   1.377       .  A
C49          H61   1.081       .  S
C50          H62   1.082       .  S
C51          C52   1.371       .  A
C51          H63   1.082       .  S
C52          H64   1.081       .  S
C53          C54   1.372       .  A
C53          H65   1.082       .  S
C54          H66   1.082       .  S
C55         C757   1.494       .  S
C56         C768   1.484       .  S
C57         C740   1.499       .  S
C58         C729   1.497       .  S
O69          C77   1.261       .  A
O69         Co89   1.990       .  S
O70          C78   1.270       .  A
O70         Co90   1.987       .  S
O71          C79   1.308       .  A
O71         Co91   2.144       .  S
O72          C80   1.279       .  A
O72        Co928   2.039       .  S
O73          C79   1.263       .  A
O73         Co90   1.871       .  S
O74          C80   1.259       .  A
O74         Co89   1.953       .  S
O75          C78   1.276       .  A
O75         Co92   2.021   1_545  S
O76          C77   1.264       .  A
O76        Co927   1.998       .  S
C77         C827   1.497       .  S
C78         C670   1.495       .  S
C79         C810   1.487       .  S
C80         C684   1.486       .  S
O81          C94   1.274       .  A
O81         Co89   2.027       .  S
O82          C95   1.300       .  A
O82         Co90   2.131       .  S
O83          C96   1.275       .  A
O83        Co927   1.995       .  S
O84          C97   1.262       .  A
O84         Co92   1.987   1_545  S
O85          C97   1.260       .  A
O85         Co90   2.001       .  S
O86          C96   1.270       .  A
O86         Co89   1.994       .  S
O87          C94   1.260       .  A
O87        Co928   1.979       .  S
O88          C95   1.260       .  A
O88         Co91   1.884       .  S
Co89        O929   2.062       .  S
Co90         O93   2.034   1_545  S
Co91        O912   2.002   1_545  S
Co91        O919   2.000   1_545  S
Co91         O93   2.002   1_545  S
Co92        O908   2.045       .  S
Co92        O923   1.974       .  S
Co92         O93   2.051       .  S
O93        Co925   2.073       .  S
C94         C712   1.477       .  S
C95         C754   1.485       .  S
C96         C771   1.487       .  S
C97         C698   1.479       .  S
N98         C103   1.351       .  A
N98         C102   1.358       .  A
N98         H130   1.031       .  S
N99         C106   1.358       .  A
N99         C107   1.350       .  A
N100        C105   1.361       .  A
N100        C104   1.351       .  A
N100        H131   1.036       .  S
N101        C108   1.343       .  A
N101        C109   1.349       .  A
C102        C118   1.425       .  A
C102       C1782   1.388       .  A
C103        C119   1.418       .  A
C103       C1783   1.386       .  A
C104        C112   1.388       .  A
C104        C121   1.419       .  A
C105        C120   1.426       .  A
C105        C113   1.387       .  A
C106        C118   1.422       .  A
C106        C114   1.385       .  A
C107        C121   1.421       .  A
C107        C115   1.389       .  A
C108        C116   1.388       .  A
C108        C119   1.404       .  A
C109        C117   1.382       .  A
C109        C120   1.400       .  A
C110        C111   1.372       .  A
C110       C1774   1.387       .  A
C110        H122   1.076       .  S
C111       C1775   1.385       .  A
C111        H123   1.082       .  S
C112        C113   1.378       .  A
C112        H124   1.082       .  S
C113        H125   1.082       .  S
C114        C115   1.371       .  A
C114        H126   1.082       .  S
C115        H127   1.082       .  S
C116        C117   1.369       .  A
C116        H128   1.083       .  S
C117        H129   1.083       .  S
C118        C642   1.507       .  S
C119        C656   1.473       .  S
C120        C687   1.505       .  S
C121        C673   1.482       .  S
N132        C137   1.352       .  A
N132        C136   1.358       .  A
N132        H164   1.040       .  S
N133        C140   1.350       .  A
N133        C141   1.346       .  A
N134        C139   1.355       .  A
N134        C138   1.354       .  A
N134        H165   1.039       .  S
N135        C142   1.353       .  A
N135        C143   1.356       .  A
C136        C144   1.387       .  A
C136        C152   1.421       .  A
C137        C153   1.416       .  A
C137        C145   1.387       .  A
C138        C146   1.386       .  A
C138        C155   1.418       .  A
C139        C154   1.419       .  A
C139        C147   1.386       .  A
C140        C152   1.404       .  A
C140        C148   1.383       .  A
C141        C155   1.411       .  A
C141        C149   1.389       .  A
C142        C150   1.386       .  A
C142        C153   1.417       .  A
C143        C151   1.386       .  A
C143        C154   1.420       .  A
C144        C145   1.373       .  A
C144        H156   1.082       .  S
C145        H157   1.082       .  S
C146        C147   1.379       .  A
C146        H158   1.082       .  S
C147        H159   1.081       .  S
C148        C149   1.373       .  A
C148        H160   1.082       .  S
C149        H161   1.082       .  S
C150        C151   1.376       .  A
C150        H162   1.082       .  S
C151        H163   1.082       .  S
C152        C701   1.501       .  S
C153        C715   1.486       .  S
C154        C628   1.504       .  S
C155        C614   1.487       .  S
O166       C1846   1.298   1_455  A
O166       Co186   2.085       .  S
O167        C175   1.280       .  A
O167       Co187   2.012       .  S
O168        C176   1.267       .  A
O168       Co188   1.987       .  S
O169        C177   1.283       .  A
O169       Co189   1.878       .  S
O170       C1848   1.264       .  A
O170       Co187   2.000       .  S
O171        C177   1.310       .  A
O171       Co186   2.119       .  S
O172        C175   1.283       .  A
O172       Co189   2.005       .  S
O173        C174   1.281       .  A
O173       Co188   1.939       .  S
C174        C799   1.515       .  S
C174       O1838   1.298       .  A
C175        C575   1.509       .  S
C176        C558   1.486       .  S
C176       O1842   1.262       .  A
C177        C743   1.496       .  S
O178        C191   1.250       .  A
O178      Co1022   1.992       .  S
O179       C1864   1.258   1_455  A
O179      Co1023   1.944       .  S
O180        C193   1.298       .  A
O180      Co1024   2.103   1_545  S
O181        C194   1.277       .  A
O181      Co1025   2.016       .  S
O182        C194   1.259       .  A
O182      Co1023   1.955       .  S
O183       C1865   1.276   1_455  A
O183      Co1022   1.919       .  S
O184        C191   1.260       .  A
O184      Co1025   2.015       .  S
O185        C192   1.285       .  A
O185      Co1024   2.036   1_545  S
Co186      O1014   1.989       .  S
Co186      O1019   1.922       .  S
Co186       O190   2.007       .  S
Co187      O1015   1.952       .  S
Co187      O1018   1.957       .  S
Co187       O190   1.985       .  S
Co188      O1016   2.093       .  S
Co188      O1021   2.032       .  S
Co188      O1862   2.001       .  S
Co189      O1017   2.005       .  S
Co189      O1020   2.027       .  S
Co189       O190   1.923       .  S
O190      Co1860   1.992       .  S
C191        C726   1.494       .  S
C192        C586   1.471       .  S
C192       O1851   1.261       .  A
C193        C782   1.502       .  S
C193       O1855   1.275       .  A
C194        C600   1.463       .  S
O195       C1875   1.260       .  A
O195      Co1887   1.880   1_556  S
O196        C204   1.254       .  A
O196       Co216   1.960       .  S
O197        C205   1.263       .  A
O197       Co217   1.986       .  S
O198       C1878   1.280   1_455  A
O198       Co218   2.033       .  S
O199        C205   1.262       .  A
O199       Co216   1.986   1_556  S
O200        C206   1.271       .  A
O200      Co1887   1.988       .  S
O201        C204   1.278       .  A
O201       Co218   2.058       .  S
O202        C203   1.307   1_455  A
O202       Co217   2.155       .  S
C203       C2219   1.493       .  S
C203       O1867   1.258       .  A
C204        C446   1.498       .  S
C205        C533   1.493       .  S
C206        C463   1.494       .  S
C206       O1870   1.278       .  A
O207        C220   1.256       .  A
O207      Co1887   1.999       .  S
O208        C221   1.269       .  A
O208       Co216   1.987   1_556  S
O209        C222   1.264       .  A
O209       Co217   1.886       .  S
O210        C223   1.254       .  A
O210       Co218   1.957       .  S
O211        C223   1.278       .  A
O211       Co216   2.058       .  S
O212       C1894   1.303       .  A
O212      Co1887   2.123   1_556  S
O213       C1892   1.252   1_455  A
O213       Co218   1.980       .  S
O214        C221   1.280       .  A
O214       Co217   2.026       .  S
Co215      O1867   1.882   1_454  S
Co215      O1872   1.982       .  S
Co215      O1879   1.999   1_455  S
Co215      O1884   2.125   1_554  S
Co215       O219   2.046       .  S
Co216       O219   2.072       .  S
Co217       O219   2.027   1_556  S
Co218       O219   2.058       .  S
C220        C488   1.472       .  S
C220       O1885   1.254       .  A
C221        C505   1.509       .  S
C222       C2188   1.498   1_455  S
C222       O1884   1.302       .  A
C223        C474   1.491       .  S
N224        C229   1.361       .  A
N224        C228   1.353       .  A
N224        H256   1.038       .  S
N225        C232   1.360       .  A
N225        C233   1.364       .  A
N226        C231   1.356       .  A
N226        C230   1.352       .  A
N226        H257   1.039       .  S
N227        C234   1.350       .  A
N227        C235   1.349       .  A
C228        C236   1.389       .  A
C228        C244   1.426       .  A
C229        C245   1.419       .  A
C229        C237   1.382       .  A
C230        C238   1.387       .  A
C230        C247   1.419       .  A
C231        C246   1.421       .  A
C231        C239   1.388       .  A
C232        C244   1.432       .  A
C232        C240   1.387       .  A
C233        C247   1.432       .  A
C233        C241   1.385       .  A
C234        C242   1.384       .  A
C234        C245   1.408       .  A
C235        C243   1.387       .  A
C235        C246   1.413       .  A
C236        C237   1.370       .  A
C236        H248   1.080       .  S
C237        H249   1.077       .  S
C238        C239   1.382       .  A
C238        H250   1.083       .  S
C239        H251   1.082       .  S
C240        C241   1.373       .  A
C240        H252   1.080       .  S
C241        H253   1.080       .  S
C242        C243   1.374       .  A
C242        H254   1.082       .  S
C243        H255   1.082       .  S
C244        C502   1.505       .  S
C245        C519   1.503       .  S
C246        C432   1.498       .  S
C247        C418   1.518       .  S
N258        C263   1.350       .  A
N258        C262   1.355       .  A
N258        H290   1.040       .  S
N259        C266   1.350       .  A
N259        C267   1.347       .  A
N260        C265   1.352       .  A
N260        C264   1.353       .  A
N260        H291   1.041       .  S
N261        C268   1.351       .  A
N261        C269   1.350       .  A
C262        C270   1.387       .  A
C262        C278   1.419       .  A
C263        C279   1.416       .  A
C263        C271   1.387       .  A
C264        C272   1.387       .  A
C264        C281   1.417       .  A
C265        C280   1.416       .  A
C265        C273   1.387       .  A
C266        C278   1.408       .  A
C266        C274   1.385       .  A
C267        C281   1.408       .  A
C267        C275   1.386       .  A
C268        C276   1.387       .  A
C268        C279   1.413       .  A
C269        C277   1.386       .  A
C269        C280   1.411       .  A
C270        C271   1.380       .  A
C270        H282   1.082       .  S
C271        H283   1.082       .  S
C272        C273   1.384       .  A
C272        H284   1.082       .  S
C273        H285   1.083       .  S
C274        C275   1.365       .  A
C274        H286   1.078       .  S
C275        H287   1.082       .  S
C276        C277   1.376       .  A
C276        H288   1.082       .  S
C277        H289   1.082       .  S
C278        C530   1.490       .  S
C279        C544   1.492       .  S
C280        C404   1.489       .  S
C281        C393   1.487       .  S
O292        C300   1.275       .  A
O292       Co312   2.031       .  S
O293        C301   1.270       .  A
O293       Co313   2.055       .  S
O294        C302   1.276       .  A
O294      Co1150   1.922   1_545  S
O295        C303   1.249       .  A
O295       Co315   1.939       .  S
O296        C302   1.290       .  A
O296       Co313   2.099       .  S
O297        C303   1.277       .  A
O297       Co312   2.082       .  S
O298        C301   1.240       .  A
O298      Co1151   1.951   1_545  S
O299        C300   1.274       .  A
O299       Co314   2.006       .  S
C300        C631   1.509       .  S
C301        C390   1.474       .  S
C302        C617   1.494       .  S
C303        C421   1.512       .  S
O304        C317   1.252       .  A
O304       Co312   1.947       .  S
O305        C318   1.269       .  A
O305       Co313   1.887       .  S
O306        C319   1.269       .  A
O306       Co314   2.011       .  S
O307        C320   1.280       .  A
O307      Co1151   2.052   1_545  S
O308        C320   1.266       .  A
O308       Co313   1.972       .  S
O309        C319   1.251       .  A
O309       Co312   1.957       .  S
O310        C317   1.278       .  A
O310       Co315   2.052       .  S
O311        C318   1.299       .  A
O311      Co1150   2.122   1_545  S
Co312       O316   2.066       .  S
Co313      O1152   2.040   1_545  S
Co314      O1130   1.905       .  S
Co314      O1147   2.124       .  S
Co314       O316   2.040       .  S
Co315      O1134   1.954       .  S
Co315      O1143   2.057       .  S
Co315       O316   2.014       .  S
O316      Co1149   2.044       .  S
C317       C2107   1.490   1_455  S
C318        C645   1.489   1_455  S
C319        C659   1.461       .  S
C320       C2079   1.503   1_455  S
N321        C326   1.341       .  A
N321        C325   1.341       .  A
N321        H353   1.046       .  S
N322        C329   1.351       .  A
N322        C330   1.346       .  A
N323        C328   1.356       .  A
N323        C327   1.359       .  A
N323        H354   1.043       .  S
N324        C331   1.355       .  A
N324        C332   1.351       .  A
C325        C333   1.386       .  A
C325        C341   1.396       .  A
C326        C342   1.398       .  A
C326        C334   1.387       .  A
C327        C335   1.390       .  A
C327        C344   1.433       .  A
C328        C343   1.428       .  A
C328        C336   1.386       .  A
C329        C341   1.412       .  A
C329        C337   1.382       .  A
C330        C344   1.419       .  A
C330        C338   1.391       .  A
C331        C339   1.384       .  A
C331        C342   1.421       .  A
C332        C340   1.387       .  A
C332        C343   1.421       .  A
C333        C334   1.380       .  A
C333        H345   1.082       .  S
C334        H346   1.082       .  S
C335        C336   1.388       .  A
C335        H347   1.081       .  S
C336        H348   1.082       .  S
C337        C338   1.379       .  A
C337        H349   1.082       .  S
C338        H350   1.080       .  S
C339        C340   1.382       .  A
C339        H351   1.082       .  S
C340        H352   1.080       .  S
C341        C603   1.490       .  S
C342        C589   1.503       .  S
C343        C460   1.517       .  S
C344        C449   1.522       .  S
N355        C360   1.352       .  A
N355        C359   1.348       .  A
N355        H387   1.037       .  S
N356        C363   1.353       .  A
N356        C364   1.351       .  A
N357        C362   1.354       .  A
N357        C361   1.352       .  A
N357        H388   1.043       .  S
N358        C365   1.350       .  A
N358        C366   1.349       .  A
C359        C367   1.388       .  A
C359        C375   1.411       .  A
C360        C376   1.413       .  A
C360        C368   1.388       .  A
C361        C369   1.388       .  A
C361        C378   1.415       .  A
C362        C377   1.414       .  A
C362        C370   1.386       .  A
C363        C375   1.416       .  A
C363        C371   1.386       .  A
C364        C378   1.414       .  A
C364        C372   1.386       .  A
C365        C373   1.387       .  A
C365        C376   1.414       .  A
C366        C374   1.387       .  A
C366        C377   1.413       .  A
C367        C368   1.375       .  A
C367        H379   1.082       .  S
C368        H380   1.082       .  S
C369        C370   1.382       .  A
C369        H381   1.082       .  S
C370        H382   1.082       .  S
C371        C372   1.377       .  A
C371        H383   1.082       .  S
C372        H384   1.082       .  S
C373        C374   1.372       .  A
C373        H385   1.082       .  S
C374        H386   1.083       .  S
C375        C477   1.482       .  S
C376        C491   1.483       .  S
C377        C561   1.493       .  S
C378        C572   1.488       .  S
C389        C390   1.403       .  A
C389        C394   1.394       .  A
C389        H396   1.085       .  S
C390        C391   1.419       .  A
C391        C392   1.407       .  A
C391        N398   1.427       .  S
C392        C393   1.400       .  A
C392        H397   1.084       .  S
C393        C394   1.411       .  A
C394        N395   1.431       .  S
N395        O399   1.262       .  A
N395        O400   1.262       .  A
N398        O402   1.262       .  A
N398        O401   1.262       .  A
C403        C404   1.394       .  A
C403        C408   1.399       .  A
C403        H410   1.084       .  S
C404        C405   1.410       .  A
C405        C406   1.408       .  A
C405        N412   1.429       .  S
C406        C407   1.409       .  A
C406        H411   1.084       .  S
C407        C408   1.416       .  A
C407       C1992   1.493       .  S
C408        N409   1.423       .  S
N409        O413   1.261       .  A
N409        O414   1.262       .  A
N412        O416   1.261       .  A
N412        O415   1.262       .  A
C417        C418   1.412       .  A
C417        C422   1.418       .  A
C417        H424   1.083       .  S
C418        C419   1.415       .  A
C419        C420   1.399       .  A
C419        N426   1.431       .  S
C420        C421   1.411       .  A
C420        H425   1.084       .  S
C421        C422   1.418       .  A
C422        N423   1.426       .  S
N423        O427   1.262       .  A
N423        O428   1.262       .  A
N426        O430   1.261       .  A
N426        O429   1.262       .  A
C431        C432   1.396       .  A
C431        C436   1.404       .  A
C431        H438   1.084       .  S
C432        C433   1.413       .  A
C433        C434   1.409       .  A
C433        N440   1.432       .  S
C434        C435   1.407       .  A
C434       H2111   1.084       .  S
C435        C436   1.424       .  A
C435       C1989   1.496       .  S
C436        N437   1.432       .  S
N437        O441   1.262       .  A
N437        O442   1.262       .  A
H439       C2106   1.084   1_455  S
N440        O444   1.261       .  A
N440        O443   1.263       .  A
C445        C446   1.406       .  A
C445        C450   1.417       .  A
C445        H452   1.083       .  S
C446        C447   1.418       .  A
C447        C448   1.403       .  A
C447        N454   1.427       .  S
C448        C449   1.402       .  A
C448        H453   1.080       .  S
C449        C450   1.424       .  A
C450        N451   1.438       .  S
N451        O455   1.262       .  A
N451        O456   1.263       .  A
N454        O458   1.261       .  A
N454        O457   1.261       .  A
C459        C460   1.407       .  A
C459        C464   1.408       .  A
C459        H466   1.083       .  S
C460        C461   1.423       .  A
C461        C462   1.409       .  A
C461        N468   1.430       .  S
C462        C463   1.403       .  A
C462        H467   1.084       .  S
C463        C464   1.419       .  A
C464        N465   1.428       .  S
N465        O469   1.262       .  A
N465       O2142   1.262       .  A
N468        O472   1.262       .  A
N468        O471   1.262       .  A
O470       N2137   1.262       .  A
C473        C474   1.410       .  A
C473        C478   1.407       .  A
C473        H480   1.083       .  S
C474        C475   1.407       .  A
C475        C476   1.395       .  A
C475        N482   1.412       .  S
C476        C477   1.394       .  A
C476        H481   1.084       .  S
C477        C478   1.406       .  A
C478        N479   1.428       .  S
N479        O483   1.262       .  A
N479        O484   1.262       .  A
N482        O486   1.258       .  A
N482        O485   1.261       .  A
C487        C488   1.401       .  A
C487        C492   1.406       .  A
C487        H494   1.084       .  S
C488        C489   1.411       .  A
C489        C490   1.389       .  A
C489       N2168   1.422       .  S
C490        C491   1.390       .  A
C490        H495   1.085       .  S
C491        C492   1.413       .  A
C492        N493   1.427       .  S
N493        O497   1.262       .  A
N493        O498   1.262       .  A
N496       C2161   1.424       .  S
N496        O500   1.259       .  A
N496        O499   1.262       .  A
C501        C502   1.407       .  A
C501        C506   1.410       .  A
C501        H508   1.084       .  S
C502        C503   1.418       .  A
C503        C504   1.403       .  A
C503        N510   1.444       .  S
C504        C505   1.416       .  A
C504        H509   1.083       .  S
C505        C506   1.414       .  A
C506        N507   1.426       .  S
N507        O511   1.262       .  A
N507        O512   1.262       .  A
N510        O514   1.262       .  A
N510        O513   1.263       .  A
C515        C516   1.405       .  A
C515        C520   1.411       .  A
C515        H522   1.084       .  S
C516        C517   1.415       .  A
C516       C1894   1.485       .  S
C517        C518   1.391       .  A
C517       N2196   1.430       .  S
C518        C519   1.402       .  A
C518        H523   1.084       .  S
C519        C520   1.419       .  A
C520        N521   1.430       .  S
N521        O525   1.262       .  A
N521        O526   1.262       .  A
N524       C2189   1.429       .  S
N524        O528   1.262   1_655  A
N524        O527   1.262       .  A
C529        C530   1.404       .  A
C529        C534   1.405       .  A
C529        H536   1.084       .  S
C530        C531   1.410       .  A
C531        C532   1.395       .  A
C531        N538   1.431       .  S
C532        C533   1.409       .  A
C532        H537   1.084       .  S
C533        C534   1.415       .  A
C534        N535   1.427       .  S
N535        O539   1.262       .  A
N535        O540   1.259       .  A
N538        O542   1.258       .  A
N538        O541   1.262       .  A
C543        C544   1.396       .  A
C543        C548   1.393       .  A
C543        H550   1.085       .  S
C544        C545   1.412       .  A
C545        C546   1.411       .  A
C545        N552   1.430       .  S
C546        C547   1.408       .  A
C546        H551   1.083       .  S
C547        C548   1.418       .  A
C547       C1875   1.487       .  S
C548       N2221   1.428       .  S
N549       C2220   1.426       .  S
N549        O553   1.258       .  A
N549        O554   1.262       .  A
N552        O556   1.263       .  A
N552        O555   1.261       .  A
C557        C558   1.406       .  A
C557        C562   1.403       .  A
C557        H564   1.083       .  S
C558        C559   1.418       .  A
C559        C560   1.394       .  A
C559       N2238   1.430       .  S
C560        C561   1.401       .  A
C560        H565   1.085       .  S
C561        C562   1.411       .  A
C562        N563   1.427       .  S
N563        O567   1.262       .  A
N563        O568   1.262       .  A
N566       C2231   1.428       .  S
N566        O570   1.262       .  A
N566        O569   1.262   1_655  A
C571        C572   1.401       .  A
C571        C576   1.410       .  A
C571        H578   1.084       .  S
C572        C573   1.401       .  A
C573        C574   1.398       .  A
C573        N580   1.432       .  S
C574        C575   1.415       .  A
C574        H579   1.075       .  S
C575        C576   1.418       .  A
C576        N577   1.425       .  S
N577        O581   1.262       .  A
N577        O582   1.261       .  A
N580       O1420   1.262       .  A
N580        O583   1.262       .  A
O584       N1416   1.261       .  A
C585        C586   1.384       .  A
C585        C590   1.398       .  A
C585        H592   1.083       .  S
C586        C587   1.412       .  A
C587        C588   1.392       .  A
C587       N2266   1.420       .  S
C588        C589   1.397       .  A
C588        H593   1.082       .  S
C589        C590   1.428       .  A
C590        N591   1.422       .  S
N591        O595   1.261       .  A
N591        O596   1.262       .  A
N594       C2259   1.425       .  S
N594        O598   1.262       .  A
N594       O1433   1.259   1_655  A
O597       N1430   1.261       .  A
C599        C600   1.387       .  A
C599        C604   1.397       .  A
C599        H606   1.085       .  S
C600        C601   1.412       .  A
C601        C602   1.390       .  A
C601        N608   1.424       .  S
C602        C603   1.397       .  A
C602        H607   1.083       .  S
C603        C604   1.422       .  A
C604        N605   1.424       .  S
N605        O609   1.261       .  A
N605        O610   1.260       .  A
N608       O1448   1.262       .  A
N608        O611   1.260       .  A
O612       N1444   1.260       .  A
C613        C614   1.389       .  A
C613        C618   1.393       .  A
C613        H620   1.084       .  S
C614        C615   1.409       .  A
C615        C616   1.411       .  A
C615        N622   1.430       .  S
C616        C617   1.410       .  A
C616        H621   1.083       .  S
C617        C618   1.424       .  A
C618        N619   1.427       .  S
N619        O623   1.261       .  A
N619        O624   1.262       .  A
N622        O626   1.261       .  A
N622        O625   1.262       .  A
C627        C628   1.407       .  A
C627        C632   1.417       .  A
C627        H634   1.083       .  S
C628        C629   1.406       .  A
C629        C630   1.403       .  A
C629        N636   1.432       .  S
C630        C631   1.412       .  A
C630        H635   1.077       .  S
C631        C632   1.416       .  A
C632        N633   1.425       .  S
N633        O637   1.262       .  A
N633        O638   1.262       .  A
N636        O640   1.261       .  A
N636        O639   1.262       .  A
C641        C646   1.403   1_655  A
C641       C2314   1.405       .  A
C641        H648   1.084   1_655  S
C642        C643   1.413       .  A
C642       C2313   1.405       .  A
C643        C644   1.403       .  A
C643        N650   1.429       .  S
C644       C2317   1.402       .  A
C644        H649   1.075       .  S
C645        C646   1.413   1_655  A
C645       C2316   1.399       .  A
C646        N647   1.427       .  S
N647        O651   1.262       .  A
N647        O652   1.261       .  A
N650        O654   1.262       .  A
N650        O653   1.262       .  A
C655        C660   1.386       .  A
C655       C2328   1.390   1_455  A
C655        H662   1.084       .  S
C656        C657   1.408       .  A
C656       C2327   1.388       .  A
C657        C658   1.402       .  A
C657        N664   1.429       .  S
C658       C2331   1.404       .  A
C658        H663   1.084       .  S
C659        C660   1.414       .  A
C659       C2330   1.400   1_455  A
C660        N661   1.429       .  S
N661        O665   1.262       .  A
N661        O666   1.262       .  A
N664        O668   1.260       .  A
N664        O667   1.262       .  A
C669        C670   1.415       .  A
C669        C674   1.402       .  A
C669        H676   1.082       .  S
C670        C671   1.417       .  A
C671        C672   1.402       .  A
C671        N678   1.426       .  S
C672        C673   1.397       .  A
C672        H677   1.084       .  S
C673        C674   1.402       .  A
C674        N675   1.431       .  S
N675        O679   1.262       .  A
N675        O680   1.262       .  A
N678        O682   1.262       .  A
N678        O681   1.262       .  A
C683        C684   1.397       .  A
C683        C688   1.401       .  A
C683        H690   1.084       .  S
C684        C685   1.418       .  A
C685        C686   1.401       .  A
C685        N692   1.426       .  S
C686        C687   1.399       .  A
C686        H691   1.084       .  S
C687        C688   1.423       .  A
C688        N689   1.427       .  S
N689        O693   1.262       .  A
N689        O694   1.260       .  A
N692        O696   1.262       .  A
N692        O695   1.261       .  A
C697        C698   1.401       .  A
C697        C702   1.402       .  A
C697        H704   1.084       .  S
C698        C699   1.410       .  A
C699        C700   1.399       .  A
C699        N706   1.423       .  S
C700        C701   1.401       .  A
C700        H705   1.084       .  S
C701        C702   1.418       .  A
C702        N703   1.428       .  S
N703        O707   1.262       .  A
N703        O708   1.261       .  A
N706        O710   1.262       .  A
N706        O709   1.261       .  A
C711        C712   1.402       .  A
C711        C716   1.393       .  A
C711        H718   1.083       .  S
C712        C713   1.415       .  A
C713        C714   1.406       .  A
C713        N720   1.429       .  S
C714        C715   1.404       .  A
C714        H719   1.084       .  S
C715        C716   1.404       .  A
C716        N717   1.425       .  S
N717        O721   1.261       .  A
N717        O722   1.260       .  A
N720        O724   1.262       .  A
N720        O723   1.262       .  A
C725        C726   1.406       .  A
C725        C730   1.404       .  A
C725        H732   1.084       .  S
C726        C727   1.415       .  A
C727        C728   1.400       .  A
C727        N734   1.424       .  S
C728        C729   1.399       .  A
C728        H733   1.084       .  S
C729        C730   1.414       .  A
C730        N731   1.429       .  S
N731        O735   1.262       .  A
N731        O736   1.262       .  A
N734        O738   1.262       .  A
N734        O737   1.258       .  A
C739        C740   1.404       .  A
C739        C744   1.405       .  A
C739        H746   1.084       .  S
C740        C741   1.409       .  A
C741        C742   1.402       .  A
C741        N748   1.428       .  S
C742        C743   1.408       .  A
C742        H747   1.082       .  S
C743        C744   1.418       .  A
C744        N745   1.430       .  S
N745        O749   1.262       .  A
N745        O750   1.262       .  A
N748        O752   1.262       .  A
N748        O751   1.262       .  A
C753        C754   1.403       .  A
C753        C758   1.395       .  A
C753        H760   1.085       .  S
C754        C755   1.413       .  A
C755        C756   1.409       .  A
C755        N762   1.424       .  S
C756        C757   1.404       .  A
C756        H761   1.084       .  S
C757        C758   1.409       .  A
C758        N759   1.429       .  S
N759        O763   1.262       .  A
N759        O764   1.262       .  A
N762        O766   1.261       .  A
N762        O765   1.259       .  A
C767        C768   1.394       .  A
C767        C772   1.391       .  A
C767        H774   1.084       .  S
C768        C769   1.407       .  A
C769        C770   1.405       .  A
C769        N776   1.429       .  S
C770        C771   1.409       .  A
C770        H775   1.083       .  S
C771        C772   1.422       .  A
C772        N773   1.430       .  S
N773        O777   1.262       .  A
N773        O778   1.262       .  A
N776        O780   1.261       .  A
N776        O779   1.262       .  A
C781        C782   1.408       .  A
C781        C786   1.405       .  A
C781        H788   1.084       .  S
C782        C783   1.420       .  A
C783        C784   1.408       .  A
C783        N790   1.426       .  S
C784        C785   1.401       .  A
C784        H789   1.084       .  S
C785        C786   1.412       .  A
C786        N787   1.429       .  S
N787        O791   1.262       .  A
N787        O792   1.262       .  A
N790        O794   1.261       .  A
N790        O793   1.262       .  A
C795        C796   1.394       .  A
C795        C800   1.401       .  A
C795        H802   1.084       .  S
C796        C797   1.411       .  A
C797        C798   1.418       .  A
C797        N804   1.429       .  S
C798        C799   1.415       .  A
C798        H803   1.083       .  S
C799        C800   1.423       .  A
C800        N801   1.424       .  S
N801        O805   1.258       .  A
N801       O2478   1.262       .  A
N804        O808   1.262       .  A
N804        O807   1.261       .  A
O806       N2473   1.262       .  A
C809        C810   1.399       .  A
C809        C814   1.405       .  A
C809        H816   1.084       .  S
C810        C811   1.417       .  A
C811        C812   1.403       .  A
C811        N818   1.432       .  S
C812        C813   1.408       .  A
C812        H817   1.084       .  S
C813        C814   1.420       .  A
C814        N815   1.429       .  S
N815        O819   1.262       .  A
N815        O820   1.262       .  A
N818        O822   1.261       .  A
N818        O821   1.262       .  A
C823        C824   1.402       .  A
C823        C828   1.410       .  A
C823        H830   1.084       .  S
C824        C825   1.402       .  A
C825        C826   1.396       .  A
C825        N832   1.430       .  S
C826        C827   1.411       .  A
C826        H831   1.084       .  S
C827        C828   1.419       .  A
C828        N829   1.427       .  S
N829        O833   1.261       .  A
N829        O834   1.262       .  A
N832        O836   1.262       .  A
N832        O835   1.262       .  A
N837        C842   1.357       .  A
N837        C841   1.353       .  A
N837        H869   1.037       .  S
N838        C845   1.353       .  A
N838        C846   1.354       .  A
N839        C844   1.356       .  A
N839        C843   1.356       .  A
N839        H870   1.034       .  S
N840        C847   1.352       .  A
N840        C848   1.349       .  A
C841        C849   1.386       .  A
C841        C857   1.417       .  A
C842        C858   1.423       .  A
C842        C850   1.388       .  A
C843        C851   1.385       .  A
C843        C860   1.421       .  A
C844        C859   1.426       .  A
C844        C852   1.387       .  A
C845        C857   1.415       .  A
C845        C853   1.386       .  A
C846        C860   1.420       .  A
C846        C854   1.388       .  A
C847        C855   1.386       .  A
C847        C858   1.414       .  A
C848        C856   1.385       .  A
C848        C859   1.410       .  A
C849        C850   1.377       .  A
C849        H861   1.082       .  S
C850        H862   1.082       .  S
C851        C852   1.377       .  A
C851        H863   1.082       .  S
C852        H864   1.077       .  S
C853        C854   1.371       .  A
C853        H865   1.082       .  S
C854        H866   1.082       .  S
C855        C856   1.372       .  A
C855        H867   1.082       .  S
C856        H868   1.082       .  S
C857       C1660   1.487       .  S
C858       C1649   1.502       .  S
C859       C1621   1.494       .  S
C860       C1632   1.497       .  S
N871        C876   1.353       .  A
N871        C875   1.356       .  A
N871        H903   1.009       .  S
N872        C879   1.356       .  A
N872        C880   1.352       .  A
N873        C878   1.363       .  A
N873        C877   1.361       .  A
N873        H904   1.023       .  S
N874        C881   1.354       .  A
N874        C882   1.355       .  A
C875        C883   1.389       .  A
C875        C891   1.419       .  A
C876        C892   1.416       .  A
C876        C884   1.386       .  A
C877        C885   1.388       .  A
C877        C894   1.430       .  A
C878        C893   1.427       .  A
C878        C886   1.385       .  A
C879        C891   1.418       .  A
C879        C887   1.383       .  A
C880        C894   1.423       .  A
C880        C888   1.391       .  A
C881        C889   1.388       .  A
C881        C892   1.420       .  A
C882        C890   1.385       .  A
C882        C893   1.417       .  A
C883        C884   1.371       .  A
C883        H895   1.080       .  S
C884        H896   1.082       .  S
C885        C886   1.377       .  A
C885        H897   1.081       .  S
C886        H898   1.082       .  S
C887        C888   1.369       .  A
C887        H899   1.082       .  S
C888        H900   1.081       .  S
C889        C890   1.371       .  A
C889        H901   1.082       .  S
C890        H902   1.082       .  S
C891       C1593   1.496       .  S
C892       C1604   1.487       .  S
C893       C1576   1.511       .  S
C894       C1565   1.499       .  S
O905        C913   1.260       .  A
O905       Co925   1.991       .  S
O906        C914   1.269       .  A
O906       Co926   1.987       .  S
O907        C915   1.306       .  A
O907       Co927   2.139       .  S
O908        C916   1.280       .  A
O909        C915   1.262       .  A
O909       Co926   1.859       .  S
O910        C916   1.258       .  A
O910       Co925   1.949       .  S
O911        C914   1.279       .  A
O911       Co928   2.032       .  S
O912        C913   1.264       .  A
C913       C1663   1.501       .  S
C914       C1506   1.496       .  S
C915       C1646   1.477       .  S
C916       C1520   1.485       .  S
O917        C930   1.274       .  A
O917       Co925   2.037       .  S
O918        C931   1.303       .  A
O918       Co926   2.139       .  S
O919        C932   1.277       .  A
O920        C933   1.259       .  A
O920       Co928   1.983       .  S
O921        C933   1.261       .  A
O921       Co926   2.009       .  S
O922        C932   1.271       .  A
O922       Co925   1.995       .  S
O923        C930   1.259       .  A
O924        C931   1.260       .  A
O924       Co927   1.872       .  S
Co926       O929   2.025       .  S
Co927       O929   1.991       .  S
Co928       O929   2.042       .  S
C930       C1548   1.483       .  S
C931       C1590   1.483       .  S
C932       C1607   1.492       .  S
C933       C1534   1.480       .  S
N934        C939   1.351       .  A
N934        C938   1.357       .  A
N934        H966   1.036       .  S
N935        C942   1.358       .  A
N935        C943   1.351       .  A
N936        C941   1.361       .  A
N936        C940   1.352       .  A
N936        H967   1.039       .  S
N937        C944   1.343       .  A
N937        C945   1.348       .  A
C938       C2618   1.387       .  A
C938        C954   1.422       .  A
C939        C955   1.416       .  A
C939       C2619   1.385       .  A
C940        C948   1.386       .  A
C940        C957   1.418       .  A
C941        C956   1.428       .  A
C941        C949   1.388       .  A
C942        C954   1.422       .  A
C942        C950   1.385       .  A
C943        C957   1.418       .  A
C943        C951   1.388       .  A
C944        C952   1.389       .  A
C944        C955   1.406       .  A
C945        C953   1.383       .  A
C945        C956   1.402       .  A
C946       C2610   1.388       .  A
C946        C947   1.374       .  A
C946        H958   1.079       .  S
C947       C2611   1.384       .  A
C947        H959   1.082       .  S
C948        C949   1.377       .  A
C948        H960   1.082       .  S
C949        H961   1.082       .  S
C950        C951   1.372       .  A
C950        H962   1.082       .  S
C951        H963   1.082       .  S
C952        C953   1.374       .  A
C952        H964   1.083       .  S
C953        H965   1.083       .  S
C954       C1478   1.506       .  S
C955       C1492   1.477       .  S
C956       C1523   1.506       .  S
C957       C1509   1.485       .  S
N968        C973   1.353       .  A
N968        C972   1.358       .  A
N968       H1000   1.039       .  S
N969        C976   1.351       .  A
N969        C977   1.347       .  A
N970        C975   1.354       .  A
N970        C974   1.353       .  A
N970       H1001   1.037       .  S
N971        C978   1.354       .  A
N971        C979   1.357       .  A
C972        C980   1.387       .  A
C972        C988   1.421       .  A
C973        C989   1.418       .  A
C973        C981   1.387       .  A
C974        C982   1.388       .  A
C974        C991   1.419       .  A
C975        C990   1.418       .  A
C975        C983   1.386       .  A
C976        C988   1.407       .  A
C976        C984   1.384       .  A
C977        C991   1.413       .  A
C977        C985   1.389       .  A
C978        C986   1.386       .  A
C978        C989   1.420       .  A
C979        C987   1.385       .  A
C979        C990   1.422       .  A
C980        C981   1.372       .  A
C980        H992   1.082       .  S
C981        H993   1.082       .  S
C982        C983   1.376       .  A
C982        H994   1.082       .  S
C983        H995   1.081       .  S
C984        C985   1.373       .  A
C984        H996   1.082       .  S
C985        H997   1.082       .  S
C986        C987   1.376       .  A
C986        H998   1.082       .  S
C987        H999   1.082       .  S
C988       C1537   1.498       .  S
C989       C1551   1.492       .  S
C990       C1464   1.501       .  S
C991       C1450   1.483       .  S
O1002      C2682   1.294   1_455  A
O1002     Co1022   2.068   1_565  S
O1003      C1011   1.276       .  A
O1003     Co1023   2.004   1_565  S
O1004      C1012   1.266       .  A
O1004     Co1024   1.993       .  S
O1005      C1013   1.282       .  A
O1005     Co1025   1.876   1_565  S
O1006      C2684   1.262       .  A
O1006     Co1023   2.008   1_565  S
O1007      C1013   1.312       .  A
O1007     Co1022   2.128   1_565  S
O1008      C1011   1.277       .  A
O1008     Co1025   1.999   1_565  S
O1009      C1010   1.283       .  A
O1009     Co1024   1.938       .  S
C1010      C1635   1.509       .  S
C1010      O2674   1.295       .  A
C1011      C1411   1.501       .  S
C1012      C1394   1.489       .  S
C1012      O2678   1.264       .  A
C1013      C1579   1.498       .  S
O1014      C1027   1.250       .  A
O1015      C2700   1.261   1_455  A
O1016      C1029   1.295       .  A
O1017      C1030   1.275       .  A
O1018      C1030   1.261       .  A
O1019      C2701   1.275       .  A
O1020      C1027   1.263       .  A
O1021      C1028   1.283       .  A
Co1022     O1026   2.019       .  S
Co1023     O1026   2.005       .  S
Co1024     O2698   2.003   1_565  S
Co1025     O1026   1.932       .  S
O1026     Co2696   2.005       .  S
C1027      C1562   1.499       .  S
C1028      C1422   1.471       .  S
C1028      O2687   1.263       .  A
C1029      C1618   1.494       .  S
C1029      O2691   1.273       .  A
C1030      C1436   1.462       .  S
O1031      C2711   1.258       .  A
O1031     Co2723   1.880   1_556  S
O1032      C1040   1.255       .  A
O1032     Co1052   1.962       .  S
O1033      C1041   1.264       .  A
O1033     Co1053   1.986       .  S
O1034      C2714   1.276   1_455  A
O1034     Co1054   2.026       .  S
O1035      C1041   1.263       .  A
O1035     Co1052   1.989   1_556  S
O1036      C1042   1.270       .  A
O1036     Co2723   1.986       .  S
O1037      C1040   1.277       .  A
O1037     Co1054   2.055       .  S
O1038      C1039   1.307   1_455  A
O1038     Co1053   2.156       .  S
C1039      C3055   1.494       .  S
C1039      O2703   1.261       .  A
C1040      C1282   1.495       .  S
C1041      C1369   1.493       .  S
C1042      C1299   1.498       .  S
C1042      O2706   1.281       .  A
O1043      C1056   1.253       .  A
O1043     Co2723   1.995       .  S
O1044      C1057   1.273       .  A
O1044     Co1052   2.003   1_556  S
O1045      C1058   1.266       .  A
O1045     Co1053   1.895       .  S
O1046      C1059   1.254       .  A
O1046     Co1054   1.958       .  S
O1047      C1059   1.280       .  A
O1047     Co1052   2.063       .  S
O1048      C2730   1.303       .  A
O1048     Co2723   2.122   1_556  S
O1049      C2728   1.251   1_455  A
O1049     Co1054   1.966       .  S
O1050      C1057   1.282       .  A
O1050     Co1053   2.031       .  S
Co1051     O2703   1.887   1_454  S
Co1051     O2708   1.992   1_455  S
Co1051     O2715   1.984   1_455  S
Co1051     O2720   2.123   1_554  S
Co1051     O1055   2.048       .  S
Co1052     O1055   2.070       .  S
Co1053     O1055   2.032   1_556  S
Co1054     O1055   2.063       .  S
C1056      C1324   1.466       .  S
C1056      O2721   1.250       .  A
C1057      C1341   1.518       .  S
C1058      C3024   1.499   1_455  S
C1058      O2720   1.299       .  A
C1059      C1310   1.502       .  S
N1060      C1065   1.359       .  A
N1060      C1064   1.355       .  A
N1060      H1092   1.041       .  S
N1061      C1068   1.361       .  A
N1061      C1069   1.362       .  A
N1062      C1067   1.362       .  A
N1062      C1066   1.354       .  A
N1062      H1093   1.041       .  S
N1063      C1070   1.347       .  A
N1063      C1071   1.349       .  A
C1064      C1072   1.389       .  A
C1064      C1080   1.425       .  A
C1065      C1081   1.421       .  A
C1065      C1073   1.386       .  A
C1066      C1074   1.387       .  A
C1066      C1083   1.426       .  A
C1067      C1082   1.427       .  A
C1067      C1075   1.386       .  A
C1068      C1080   1.427       .  A
C1068      C1076   1.384       .  A
C1069      C1083   1.434       .  A
C1069      C1077   1.388       .  A
C1070      C1078   1.385       .  A
C1070      C1081   1.403       .  A
C1071      C1079   1.386       .  A
C1071      C1082   1.413       .  A
C1072      C1073   1.377       .  A
C1072      H1084   1.081       .  S
C1073      H1085   1.081       .  S
C1074      C1075   1.384       .  A
C1074      H1086   1.082       .  S
C1075      H1087   1.082       .  S
C1076      C1077   1.376       .  A
C1076      H1088   1.081       .  S
C1077      H1089   1.080       .  S
C1078      C1079   1.374       .  A
C1078      H1090   1.083       .  S
C1079      H1091   1.082       .  S
C1080      C1338   1.509       .  S
C1081      C1355   1.495       .  S
C1082      C1268   1.512       .  S
C1083      C1254   1.523       .  S
N1094      C1099   1.353       .  A
N1094      C1098   1.357       .  A
N1094      H1126   1.039       .  S
N1095      C1102   1.352       .  A
N1095      C1103   1.349       .  A
N1096      C1101   1.356       .  A
N1096      C1100   1.356       .  A
N1096      H1127   1.040       .  S
N1097      C1104   1.351       .  A
N1097      C1105   1.351       .  A
C1098      C1106   1.388       .  A
C1098      C1114   1.422       .  A
C1099      C1115   1.418       .  A
C1099      C1107   1.387       .  A
C1100      C1108   1.387       .  A
C1100      C1117   1.420       .  A
C1101      C1116   1.420       .  A
C1101      C1109   1.387       .  A
C1102      C1114   1.411       .  A
C1102      C1110   1.385       .  A
C1103      C1117   1.411       .  A
C1103      C1111   1.386       .  A
C1104      C1112   1.387       .  A
C1104      C1115   1.413       .  A
C1105      C1113   1.386       .  A
C1105      C1116   1.412       .  A
C1106      C1107   1.379       .  A
C1106      H1118   1.082       .  S
C1107      H1119   1.083       .  S
C1108      C1109   1.382       .  A
C1108      H1120   1.082       .  S
C1109      H1121   1.082       .  S
C1110      C1111   1.362       .  A
C1110      H1122   1.079       .  S
C1111      H1123   1.082       .  S
C1112      C1113   1.374       .  A
C1112      H1124   1.082       .  S
C1113      H1125   1.083       .  S
C1114      C1366   1.494       .  S
C1115      C1380   1.491       .  S
C1116      C1240   1.495       .  S
C1117      C1229   1.491       .  S
O1128      C1136   1.278       .  A
O1128     Co1148   2.039       .  S
O1129      C1137   1.270       .  A
O1129     Co1149   2.053       .  S
O1130      C1138   1.273       .  A
O1131      C1139   1.246       .  A
O1131     Co1151   1.931       .  S
O1132      C1138   1.290       .  A
O1132     Co1149   2.097       .  S
O1133      C1139   1.279       .  A
O1133     Co1148   2.097       .  S
O1134      C1137   1.244       .  A
O1135      C1136   1.272       .  A
O1135     Co1150   1.999       .  S
C1136      C1467   1.506       .  S
C1137      C1226   1.476       .  S
C1138      C1453   1.481       .  S
C1139      C1257   1.517       .  S
O1140      C1153   1.256       .  A
O1140     Co1148   1.968       .  S
O1141      C1154   1.270       .  A
O1141     Co1149   1.895       .  S
O1142      C1155   1.274       .  A
O1142     Co1150   2.030       .  S
O1143      C1156   1.281       .  A
O1144      C1156   1.267   1_655  A
O1144     Co1149   1.976   1_655  S
O1145      C1155   1.255       .  A
O1145     Co1148   1.967       .  S
O1146      C1153   1.279       .  A
O1146     Co1151   2.056       .  S
O1147      C1154   1.299       .  A
Co1148     O1152   2.067       .  S
Co1150     O1152   2.042       .  S
Co1151     O1152   2.009       .  S
C1153      C2943   1.503   1_455  S
C1154      C1481   1.494   1_455  S
C1155      C1495   1.476       .  S
C1156      C2915   1.506   1_455  S
N1157      C1162   1.335       .  A
N1157      C1161   1.340       .  A
N1157      H1189   1.046       .  S
N1158      C1165   1.351       .  A
N1158      C1166   1.342       .  A
N1159      C1164   1.359       .  A
N1159      C1163   1.358       .  A
N1159      H1190   1.044       .  S
N1160      C1167   1.352       .  A
N1160      C1168   1.349       .  A
C1161      C1169   1.385       .  A
C1161      C1177   1.393       .  A
C1162      C1178   1.392       .  A
C1162      C1170   1.388       .  A
C1163      C1171   1.391       .  A
C1163      C1180   1.437       .  A
C1164      C1179   1.429       .  A
C1164      C1172   1.384       .  A
C1165      C1177   1.414       .  A
C1165      C1173   1.384       .  A
C1166      C1180   1.415       .  A
C1166      C1174   1.391       .  A
C1167      C1175   1.384       .  A
C1167      C1178   1.416       .  A
C1168      C1176   1.387       .  A
C1168      C1179   1.418       .  A
C1169      C1170   1.380       .  A
C1169      H1181   1.082       .  S
C1170      H1182   1.082       .  S
C1171      C1172   1.389       .  A
C1171      H1183   1.082       .  S
C1172      H1184   1.082       .  S
C1173      C1174   1.381       .  A
C1173      H1185   1.082       .  S
C1174      H1186   1.081       .  S
C1175      C1176   1.381       .  A
C1175      H1187   1.082       .  S
C1176      H1188   1.081       .  S
C1177      C1439   1.492       .  S
C1178      C1425   1.485       .  S
C1179      C1296   1.518       .  S
C1180      C1285   1.517       .  S
N1191      C1196   1.352       .  A
N1191      C1195   1.351       .  A
N1191      H1223   1.036       .  S
N1192      C1199   1.356       .  A
N1192      C1200   1.351       .  A
N1193      C1198   1.357       .  A
N1193      C1197   1.353       .  A
N1193      H1224   1.041       .  S
N1194      C1201   1.353       .  A
N1194      C1202   1.353       .  A
C1195      C1203   1.386       .  A
C1195      C1211   1.414       .  A
C1196      C1212   1.414       .  A
C1196      C1204   1.388       .  A
C1197      C1205   1.389       .  A
C1197      C1214   1.420       .  A
C1198      C1213   1.417       .  A
C1198      C1206   1.385       .  A
C1199      C1211   1.419       .  A
C1199      C1207   1.385       .  A
C1200      C1214   1.417       .  A
C1200      C1208   1.387       .  A
C1201      C1209   1.388       .  A
C1201      C1212   1.418       .  A
C1202      C1210   1.386       .  A
C1202      C1213   1.416       .  A
C1203      C1204   1.376       .  A
C1203      H1215   1.082       .  S
C1204      H1216   1.082       .  S
C1205      C1206   1.380       .  A
C1205      H1217   1.082       .  S
C1206      H1218   1.082       .  S
C1207      C1208   1.377       .  A
C1207      H1219   1.082       .  S
C1208      H1220   1.082       .  S
C1209      C1210   1.371       .  A
C1209      H1221   1.082       .  S
C1210      H1222   1.083       .  S
C1211      C1313   1.494       .  S
C1212      C1327   1.482       .  S
C1213      C1397   1.505       .  S
C1214      C1408   1.488       .  S
C1225      C1226   1.402       .  A
C1225      C1230   1.393       .  A
C1225      H1232   1.085       .  S
C1226      C1227   1.420       .  A
C1227      C1228   1.408       .  A
C1227      N1234   1.427       .  S
C1228      C1229   1.401       .  A
C1228      H1233   1.084       .  S
C1229      C1230   1.411       .  A
C1230      N1231   1.430       .  S
N1231      O1235   1.261       .  A
N1231      O1236   1.262       .  A
N1234      O1238   1.262       .  A
N1234      O1237   1.262       .  A
C1239      C1240   1.393       .  A
C1239      C1244   1.401       .  A
C1239      H1246   1.084       .  S
C1240      C1241   1.411       .  A
C1241      C1242   1.413       .  A
C1241      N1248   1.430       .  S
C1242      C1243   1.412       .  A
C1242      H1247   1.083       .  S
C1243      C1244   1.418       .  A
C1243      C2828   1.502       .  S
C1244      N1245   1.421       .  S
N1245      O1249   1.261       .  A
N1245      O1250   1.262       .  A
N1248      O1252   1.261       .  A
N1248      O1251   1.262       .  A
C1253      C1254   1.416       .  A
C1253      C1258   1.422       .  A
C1253      H1260   1.083       .  S
C1254      C1255   1.414       .  A
C1255      C1256   1.399       .  A
C1255      N1262   1.431       .  S
C1256      C1257   1.413       .  A
C1256      H1261   1.084       .  S
C1257      C1258   1.418       .  A
C1258      N1259   1.427       .  S
N1259      O1263   1.262       .  A
N1259      O1264   1.262       .  A
N1262      O1266   1.261       .  A
N1262      O1265   1.262       .  A
C1267      C1268   1.398       .  A
C1267      C1272   1.408       .  A
C1267      H1274   1.084       .  S
C1268      C1269   1.416       .  A
C1269      C1270   1.414       .  A
C1269      N1276   1.430       .  S
C1270      C1271   1.408       .  A
C1270      H2947   1.083       .  S
C1271      C1272   1.425       .  A
C1271      C2825   1.510       .  S
C1272      N1273   1.429       .  S
N1273      O1277   1.262       .  A
N1273      O1278   1.261       .  A
H1275      C2942   1.083   1_455  S
N1276      O1280   1.261       .  A
N1276      O1279   1.263       .  A
C1281      C1282   1.405       .  A
C1281      C1286   1.418       .  A
C1281      H1288   1.083       .  S
C1282      C1283   1.412       .  A
C1283      C1284   1.395       .  A
C1283      N1290   1.421       .  S
C1284      C1285   1.398       .  A
C1284      H1289   1.079       .  S
C1285      C1286   1.428       .  A
C1286      N1287   1.439       .  S
N1287      O1291   1.262       .  A
N1287      O1292   1.263       .  A
N1290      O1294   1.260       .  A
N1290      O1293   1.261       .  A
C1295      C1296   1.406       .  A
C1295      C1300   1.411       .  A
C1295      H1302   1.083       .  S
C1296      C1297   1.422       .  A
C1297      C1298   1.408       .  A
C1297      N1304   1.430       .  S
C1298      C1299   1.400       .  A
C1298      H1303   1.084       .  S
C1299      C1300   1.422       .  A
C1300      N1301   1.429       .  S
N1301      O1305   1.262       .  A
N1301      O2978   1.262       .  A
N1304      O1308   1.262       .  A
N1304      O1307   1.262       .  A
O1306      N2973   1.262       .  A
C1309      C1310   1.413       .  A
C1309      C1314   1.410       .  A
C1309      H1316   1.083       .  S
C1310      C1311   1.410       .  A
C1311      C1312   1.401       .  A
C1311      N1318   1.415       .  S
C1312      C1313   1.398       .  A
C1312      H1317   1.084       .  S
C1313      C1314   1.407       .  A
C1314      N1315   1.428       .  S
N1315      O1319   1.262       .  A
N1315      O1320   1.262       .  A
N1318      O1322   1.259       .  A
N1318      O1321   1.261       .  A
C1323      C1324   1.401       .  A
C1323      C1328   1.405       .  A
C1323      H1330   1.084       .  S
C1324      C1325   1.409       .  A
C1325      C1326   1.387       .  A
C1325      N3004   1.424       .  S
C1326      C1327   1.393       .  A
C1326      H1331   1.085       .  S
C1327      C1328   1.414       .  A
C1328      N1329   1.427       .  S
N1329      O1333   1.262       .  A
N1329      O1334   1.262       .  A
N1332      C2997   1.429       .  S
N1332      O1336   1.262       .  A
N1332      O1335   1.262   1_655  A
C1337      C1338   1.409       .  A
C1337      C1342   1.417       .  A
C1337      H1344   1.083       .  S
C1338      C1339   1.414       .  A
C1339      C1340   1.407       .  A
C1339      N1346   1.442       .  S
C1340      C1341   1.418       .  A
C1340      H1345   1.083       .  S
C1341      C1342   1.416       .  A
C1342      N1343   1.427       .  S
N1343      O1347   1.262   1_556  A
N1343      O1348   1.261       .  A
N1346      O1350   1.263       .  A
N1346      O1349   1.262       .  A
C1351      C1352   1.413       .  A
C1351      C1356   1.415       .  A
C1351      H1358   1.083       .  S
C1352      C1353   1.417       .  A
C1352      C2730   1.492       .  S
C1353      C1354   1.392       .  A
C1353      N3032   1.429       .  S
C1354      C1355   1.399       .  A
C1354      H1359   1.084       .  S
C1355      C1356   1.407       .  A
C1356      N1357   1.429       .  S
N1357      O1361   1.261       .  A
N1357      O1362   1.262       .  A
N1360      C3025   1.429       .  S
N1360      O1364   1.262   1_655  A
N1360      O1363   1.262       .  A
C1365      C1366   1.402       .  A
C1365      C1370   1.404       .  A
C1365      H1372   1.084       .  S
C1366      C1367   1.414       .  A
C1367      C1368   1.396       .  A
C1367      N1374   1.432       .  S
C1368      C1369   1.408       .  A
C1368      H1373   1.084       .  S
C1369      C1370   1.414       .  A
C1370      N1371   1.425       .  S
N1371      O1375   1.261       .  A
N1371      O1376   1.258       .  A
N1374      O1378   1.258       .  A
N1374      O1377   1.262       .  A
C1379      C1380   1.392       .  A
C1379      C1384   1.392       .  A
C1379      H1386   1.085       .  S
C1380      C1381   1.412       .  A
C1381      C1382   1.414       .  A
C1381      N1388   1.430       .  S
C1382      C1383   1.410       .  A
C1382      H1387   1.083       .  S
C1383      C1384   1.417       .  A
C1383      C2711   1.488       .  S
C1384      N3057   1.427       .  S
N1385      C3056   1.427       .  S
N1385      O1389   1.260       .  A
N1385      O1390   1.262       .  A
N1388      O1392   1.263       .  A
N1388      O1391   1.261       .  A
C1393      C1394   1.407       .  A
C1393      C1398   1.408       .  A
C1393      H1400   1.084       .  S
C1394      C1395   1.413       .  A
C1395      C1396   1.393       .  A
C1395      N3074   1.428       .  S
C1396      C1397   1.403       .  A
C1396      H1401   1.084       .  S
C1397      C1398   1.417       .  A
C1398      N1399   1.428       .  S
N1399      O1403   1.262       .  A
N1399      O1404   1.262       .  A
N1402      C3067   1.427       .  S
N1402      O1406   1.261       .  A
N1402      O1405   1.262   1_565  A
C1407      C1408   1.404       .  A
C1407      C1412   1.413       .  A
C1407      H1414   1.083       .  S
C1408      C1409   1.400       .  A
C1409      C1410   1.394       .  A
C1409      N1416   1.431       .  S
C1410      C1411   1.413       .  A
C1410      H1415   1.078       .  S
C1411      C1412   1.417       .  A
C1412      N1413   1.426       .  S
N1413      O1417   1.262       .  A
N1413      O1418   1.262       .  A
N1416      O1419   1.262       .  A
C1421      C1422   1.392       .  A
C1421      C1426   1.406       .  A
C1421      H1428   1.083       .  S
C1422      C1423   1.412       .  A
C1423      C1424   1.385       .  A
C1423      N3102   1.417       .  S
C1424      C1425   1.387       .  A
C1424      H1429   1.083       .  S
C1425      C1426   1.424       .  A
C1426      N1427   1.435       .  S
N1427      O1431   1.262       .  A
N1427      O1432   1.262       .  A
N1430      C3095   1.417   1_455  S
N1430      O1434   1.259       .  A
C1435      C1436   1.387       .  A
C1435      C1440   1.396       .  A
C1435      H1442   1.085       .  S
C1436      C1437   1.411       .  A
C1437      C1438   1.387       .  A
C1437      N1444   1.421       .  S
C1438      C1439   1.395       .  A
C1438      H1443   1.083       .  S
C1439      C1440   1.425       .  A
C1440      N1441   1.424       .  S
N1441      O1445   1.262       .  A
N1441      O1446   1.262       .  A
N1444      O1447   1.259       .  A
C1449      C1450   1.392       .  A
C1449      C1454   1.394       .  A
C1449      H1456   1.084       .  S
C1450      C1451   1.408       .  A
C1451      C1452   1.404       .  A
C1451      N1458   1.429       .  S
C1452      C1453   1.405       .  A
C1452      H1457   1.084       .  S
C1453      C1454   1.423       .  A
C1454      N1455   1.430       .  S
N1455      O1459   1.261       .  A
N1455      O1460   1.262       .  A
N1458      O1462   1.261       .  A
N1458      O1461   1.262       .  A
C1463      C1464   1.407       .  A
C1463      C1468   1.416       .  A
C1463      H1470   1.083       .  S
C1464      C1465   1.405       .  A
C1465      C1466   1.403       .  A
C1465      N1472   1.432       .  S
C1466      C1467   1.410       .  A
C1466      H1471   1.078       .  S
C1467      C1468   1.416       .  A
C1468      N1469   1.426       .  S
N1469      O1473   1.262       .  A
N1469      O1474   1.262       .  A
N1472      O1476   1.262       .  A
N1472      O1475   1.262       .  A
C1477      C3150   1.404       .  A
C1477      C1482   1.405   1_655  A
C1477      H1484   1.084   1_655  S
C1478      C3149   1.403       .  A
C1478      C1479   1.416       .  A
C1479      C1480   1.405       .  A
C1479      N1486   1.431       .  S
C1480      C3153   1.402       .  A
C1480      H1485   1.073       .  S
C1481      C3152   1.401       .  A
C1481      C1482   1.415   1_655  A
C1482      N1483   1.428       .  S
N1483      O1487   1.262       .  A
N1483      O1488   1.262       .  A
N1486      O1490   1.262       .  A
N1486      O1489   1.262       .  A
C1491      C3164   1.392   1_455  A
C1491      C1496   1.392       .  A
C1491      H1498   1.084       .  S
C1492      C3163   1.391       .  A
C1492      C1493   1.407       .  A
C1493      C1494   1.399       .  A
C1493      N1500   1.426       .  S
C1494      C3167   1.399       .  A
C1494      H1499   1.084       .  S
C1495      C3166   1.405   1_455  A
C1495      C1496   1.415       .  A
C1496      N1497   1.430       .  S
N1497      O1501   1.262       .  A
N1497      O1502   1.262       .  A
N1500      O1504   1.257       .  A
N1500      O1503   1.262       .  A
C1505      C1506   1.412       .  A
C1505      C1510   1.400       .  A
C1505      H1512   1.082       .  S
C1506      C1507   1.419       .  A
C1507      C1508   1.405       .  A
C1507      N1514   1.427       .  S
C1508      C1509   1.399       .  A
C1508      H1513   1.084       .  S
C1509      C1510   1.402       .  A
C1510      N1511   1.430       .  S
N1511      O1515   1.261       .  A
N1511      O1516   1.261       .  A
N1514      O1518   1.262       .  A
N1514      O1517   1.262       .  A
C1519      C1520   1.393       .  A
C1519      C1524   1.400       .  A
C1519      H1526   1.084       .  S
C1520      C1521   1.418       .  A
C1521      C1522   1.400       .  A
C1521      N1528   1.422       .  S
C1522      C1523   1.397       .  A
C1522      H1527   1.084       .  S
C1523      C1524   1.422       .  A
C1524      N1525   1.422       .  S
N1525      O1529   1.263       .  A
N1525      O1530   1.261       .  A
N1528      O1532   1.262       .  A
N1528      O1531   1.259       .  A
C1533      C1534   1.401       .  A
C1533      C1538   1.400       .  A
C1533      H1540   1.084       .  S
C1534      C1535   1.411       .  A
C1535      C1536   1.401       .  A
C1535      N1542   1.423       .  S
C1536      C1537   1.402       .  A
C1536      H1541   1.084       .  S
C1537      C1538   1.415       .  A
C1538      N1539   1.428       .  S
N1539      O1543   1.262       .  A
N1539      O1544   1.261       .  A
N1542      O1546   1.262       .  A
N1542      O1545   1.262       .  A
C1547      C1548   1.405       .  A
C1547      C1552   1.399       .  A
C1547      H1554   1.082       .  S
C1548      C1549   1.413       .  A
C1549      C1550   1.405       .  A
C1549      N1556   1.428       .  S
C1550      C1551   1.403       .  A
C1550      H1555   1.084       .  S
C1551      C1552   1.406       .  A
C1552      N1553   1.427       .  S
N1553      O1557   1.261       .  A
N1553      O1558   1.260       .  A
N1556      O1560   1.262       .  A
N1556      O1559   1.262       .  A
C1561      C1562   1.407       .  A
C1561      C1566   1.406       .  A
C1561      H1568   1.083       .  S
C1562      C1563   1.417       .  A
C1563      C1564   1.400       .  A
C1563      N1570   1.424       .  S
C1564      C1565   1.397       .  A
C1564      H1569   1.084       .  S
C1565      C1566   1.415       .  A
C1566      N1567   1.429       .  S
N1567      O1571   1.262       .  A
N1567      O1572   1.262       .  A
N1570      O1574   1.262       .  A
N1570      O1573   1.259       .  A
C1575      C1576   1.409       .  A
C1575      C1580   1.408       .  A
C1575      H1582   1.084       .  S
C1576      C1577   1.414       .  A
C1577      C1578   1.404       .  A
C1577      N1584   1.429       .  S
C1578      C1579   1.408       .  A
C1578      H1583   1.083       .  S
C1579      C1580   1.415       .  A
C1580      N1581   1.431       .  S
N1581      O1585   1.261       .  A
N1581      O1586   1.262   1_565  A
N1584      O1588   1.262       .  A
N1584      O1587   1.262       .  A
C1589      C1590   1.404       .  A
C1589      C1594   1.395       .  A
C1589      H1596   1.085       .  S
C1590      C1591   1.410       .  A
C1591      C1592   1.407       .  A
C1591      N1598   1.424       .  S
C1592      C1593   1.405       .  A
C1592      H1597   1.084       .  S
C1593      C1594   1.409       .  A
C1594      N1595   1.429       .  S
N1595      O1599   1.261       .  A
N1595      O1600   1.262       .  A
N1598      O1602   1.261       .  A
N1598      O1601   1.259       .  A
C1603      C1604   1.393       .  A
C1603      C1608   1.391       .  A
C1603      H1610   1.085       .  S
C1604      C1605   1.406       .  A
C1605      C1606   1.407       .  A
C1605      N1612   1.429       .  S
C1606      C1607   1.410       .  A
C1606      H1611   1.083       .  S
C1607      C1608   1.424       .  A
C1608      N1609   1.430       .  S
N1609      O1613   1.262       .  A
N1609      O1614   1.262       .  A
N1612      O1616   1.261       .  A
N1612      O1615   1.262       .  A
C1617      C1618   1.406       .  A
C1617      C1622   1.401       .  A
C1617      H1624   1.084       .  S
C1618      C1619   1.420       .  A
C1619      C1620   1.405       .  A
C1619      N1626   1.427       .  S
C1620      C1621   1.400       .  A
C1620      H1625   1.084       .  S
C1621      C1622   1.413       .  A
C1622      N1623   1.429       .  S
N1623      O1627   1.261       .  A
N1623      O1628   1.262       .  A
N1626      O1630   1.262       .  A
N1626      O1629   1.262       .  A
C1631      C1632   1.394       .  A
C1631      C1636   1.402       .  A
C1631      H1638   1.084       .  S
C1632      C1633   1.409       .  A
C1633      C1634   1.412       .  A
C1633      N1640   1.429       .  S
C1634      C1635   1.412       .  A
C1634      H1639   1.083       .  S
C1635      C1636   1.425       .  A
C1636      N1637   1.426       .  S
N1637      O1641   1.260       .  A
N1637      O3314   1.262       .  A
N1640      O1644   1.262       .  A
N1640      O1643   1.262       .  A
O1642      N3309   1.262       .  A
C1645      C1646   1.397       .  A
C1645      C1650   1.401       .  A
C1645      H1652   1.084       .  S
C1646      C1647   1.416       .  A
C1647      C1648   1.398       .  A
C1647      N1654   1.431       .  S
C1648      C1649   1.405       .  A
C1648      H1653   1.084       .  S
C1649      C1650   1.420       .  A
C1650      N1651   1.429       .  S
N1651      O1655   1.262       .  A
N1651      O1656   1.262       .  A
N1654      O1658   1.261       .  A
N1654      O1657   1.262       .  A
C1659      C1660   1.397       .  A
C1659      C1664   1.407       .  A
C1659      H1666   1.084       .  S
C1660      C1661   1.402       .  A
C1661      C1662   1.398       .  A
C1661      N1668   1.429       .  S
C1662      C1663   1.412       .  A
C1662      H1667   1.083       .  S
C1663      C1664   1.421       .  A
C1664      N1665   1.424       .  S
N1665      O1669   1.258       .  A
N1665      O1670   1.261       .  A
N1668      O1672   1.262       .  A
N1668      O1671   1.262       .  A
N1673      C1678   1.358       .  A
N1673      C1677   1.350       .  A
N1673      H1705   1.040       .  S
N1674      C1681   1.351       .  A
N1674      C1682   1.354       .  A
N1675      C1680   1.355       .  A
N1675      C1679   1.358       .  A
N1675      H1706   1.039       .  S
N1676      C1683   1.353       .  A
N1676      C1684   1.347       .  A
C1677      C1685   1.387       .  A
C1677      C1693   1.414       .  A
C1678      C1694   1.421       .  A
C1678      C1686   1.386       .  A
C1679      C1687   1.385       .  A
C1679      C1696   1.421       .  A
C1680      C1695   1.423       .  A
C1680      C1688   1.387       .  A
C1681      C1693   1.414       .  A
C1681      C1689   1.387       .  A
C1682      C1696   1.417       .  A
C1682      C1690   1.387       .  A
C1683      C1691   1.385       .  A
C1683      C1694   1.414       .  A
C1684      C1692   1.385       .  A
C1684      C1695   1.407       .  A
C1685      C1686   1.378       .  A
C1685      H1697   1.082       .  S
C1686      H1698   1.082       .  S
C1687      C1688   1.377       .  A
C1687      H1699   1.082       .  S
C1688      H1700   1.078       .  S
C1689      C1690   1.370       .  A
C1689      H1701   1.082       .  S
C1690      H1702   1.082       .  S
C1691      C1692   1.375       .  A
C1691      H1703   1.082       .  S
C1692      H1704   1.082       .  S
C1693      C2496   1.480       .  S
C1694      C2485   1.510       .  S
C1695      C2457   1.489       .  S
C1696      C2468   1.500       .  S
N1707      C1712   1.351       .  A
N1707      C1711   1.353       .  A
N1707      H1739   1.010       .  S
N1708      C1715   1.356       .  A
N1708      C1716   1.353       .  A
N1709      C1714   1.362       .  A
N1709      C1713   1.359       .  A
N1709      H1740   1.017       .  S
N1710      C1717   1.352       .  A
N1710      C1718   1.352       .  A
C1711      C1719   1.387       .  A
C1711      C1727   1.411       .  A
C1712      C1728   1.412       .  A
C1712      C1720   1.387       .  A
C1713      C1721   1.390       .  A
C1713      C1730   1.430       .  A
C1714      C1729   1.424       .  A
C1714      C1722   1.384       .  A
C1715      C1727   1.416       .  A
C1715      C1723   1.382       .  A
C1716      C1730   1.424       .  A
C1716      C1724   1.390       .  A
C1717      C1725   1.387       .  A
C1717      C1728   1.415       .  A
C1718      C1726   1.385       .  A
C1718      C1729   1.412       .  A
C1719      C1720   1.374       .  A
C1719      H1731   1.081       .  S
C1720      H1732   1.083       .  S
C1721      C1722   1.377       .  A
C1721      H1733   1.080       .  S
C1722      H1734   1.082       .  S
C1723      C1724   1.370       .  A
C1723      H1735   1.083       .  S
C1724      H1736   1.081       .  S
C1725      C1726   1.370       .  A
C1725      H1737   1.082       .  S
C1726      H1738   1.082       .  S
C1727      C2429   1.490       .  S
C1728      C2440   1.481       .  S
C1729      C2412   1.503       .  S
C1730      C2401   1.497       .  S
O1741      C1749   1.259       .  A
O1741     Co1761   1.986       .  S
O1742      C1750   1.271       .  A
O1742     Co1762   1.991       .  S
O1743      C1751   1.306       .  A
O1743     Co1763   2.143       .  S
O1744      C1752   1.279       .  A
O1744     Co2600   2.034       .  S
O1745      C1751   1.261       .  A
O1745     Co1762   1.865       .  S
O1746      C1752   1.259       .  A
O1746     Co1761   1.955       .  S
O1747      C1750   1.277       .  A
O1747     Co1764   2.028       .  S
O1748      C1749   1.262       .  A
O1748     Co2599   1.996       .  S
C1749      C2499   1.495       .  S
C1750      C2342   1.503       .  S
C1751      C2482   1.487       .  S
C1752      C2356   1.484       .  S
O1753      C1766   1.272       .  A
O1753     Co1761   2.037       .  S
O1754      C1767   1.298       .  A
O1754     Co1762   2.123       .  S
O1755      C1768   1.276       .  A
O1755     Co2599   1.992       .  S
O1756      C1769   1.259       .  A
O1756     Co1764   1.985       .  S
O1757      C1769   1.258       .  A
O1757     Co1762   1.996       .  S
O1758      C1768   1.272       .  A
O1758     Co1761   2.002       .  S
O1759      C1766   1.258       .  A
O1759     Co2600   1.974       .  S
O1760      C1767   1.264       .  A
O1760     Co1763   1.882       .  S
Co1761     O2601   2.076       .  S
Co1762     O1765   2.025   1_545  S
Co1763     O2584   1.996   1_545  S
Co1763     O2591   2.010   1_545  S
Co1763     O1765   2.003   1_545  S
Co1764     O2580   2.032   1_545  S
Co1764     O2595   1.965   1_545  S
Co1764     O1765   2.048   1_545  S
O1765     Co2597   2.069       .  S
C1766      C2384   1.478       .  S
C1767      C2426   1.477       .  S
C1768      C2443   1.490       .  S
C1769      C2370   1.473       .  S
N1770      C1775   1.349       .  A
N1770      C1774   1.355       .  A
N1770      H1802   1.038       .  S
N1771      C1778   1.358       .  A
N1771      C1779   1.350       .  A
N1772      C1777   1.361       .  A
N1772      C1776   1.351       .  A
N1772      H1803   1.041       .  S
N1773      C1780   1.341       .  A
N1773      C1781   1.347       .  A
C1774      C1790   1.420       .  A
C1775      C1791   1.413       .  A
C1776      C1784   1.388       .  A
C1776      C1793   1.419       .  A
C1777      C1792   1.425       .  A
C1777      C1785   1.387       .  A
C1778      C1790   1.422       .  A
C1778      C1786   1.386       .  A
C1779      C1793   1.418       .  A
C1779      C1787   1.388       .  A
C1780      C1788   1.389       .  A
C1780      C1791   1.403       .  A
C1781      C1789   1.383       .  A
C1781      C1792   1.400       .  A
C1782      C1783   1.375       .  A
C1782      H1794   1.080       .  S
C1783      H1795   1.082       .  S
C1784      C1785   1.382       .  A
C1784      H1796   1.082       .  S
C1785      H1797   1.082       .  S
C1786      C1787   1.373       .  A
C1786      H1798   1.081       .  S
C1787      H1799   1.082       .  S
C1788      C1789   1.374       .  A
C1788      H1800   1.083   1_655  S
C1789      H1801   1.082       .  S
C1790      C2314   1.504       .  S
C1791      C2328   1.471       .  S
C1792      C2359   1.504       .  S
C1793      C2345   1.486       .  S
N1804      C1809   1.353       .  A
N1804      C1808   1.357       .  A
N1804      H1836   1.041       .  S
N1805      C1812   1.348       .  A
N1805      C1813   1.345       .  A
N1806      C1811   1.355       .  A
N1806      C1810   1.357       .  A
N1806      H1837   1.037       .  S
N1807      C1814   1.356       .  A
N1807      C1815   1.356       .  A
C1808      C1816   1.387       .  A
C1808      C1824   1.419       .  A
C1809      C1825   1.414       .  A
C1809      C1817   1.386       .  A
C1810      C1818   1.385       .  A
C1810      C1827   1.422       .  A
C1811      C1826   1.424       .  A
C1811      C1819   1.389       .  A
C1812      C1824   1.404       .  A
C1812      C1820   1.384       .  A
C1813      C1827   1.409       .  A
C1813      C1821   1.388       .  A
C1814      C1822   1.384       .  A
C1814      C1825   1.419       .  A
C1815      C1823   1.387       .  A
C1815      C1826   1.425       .  A
C1816      C1817   1.373       .  A
C1816      H1828   1.082       .  S
C1817      H1829   1.083       .  S
C1818      C1819   1.375       .  A
C1818      H1830   1.082       .  S
C1819      H1831   1.079       .  S
C1820      C1821   1.374       .  A
C1820      H1832   1.082       .  S
C1821      H1833   1.083       .  S
C1822      C1823   1.374       .  A
C1822      H1834   1.082       .  S
C1823      H1835   1.082       .  S
C1824      C2373   1.494       .  S
C1825      C2387   1.497       .  S
C1826      C2300   1.503       .  S
C1827      C2286   1.492       .  S
O1838     Co1858   2.087       .  S
O1839      C1847   1.281       .  A
O1839     Co1859   2.020       .  S
O1840      C1848   1.267       .  A
O1840     Co1860   1.990       .  S
O1841      C1849   1.284       .  A
O1841     Co1861   1.880       .  S
O1842     Co1859   1.997       .  S
O1843      C1849   1.307       .  A
O1843     Co1858   2.109       .  S
O1844      C1847   1.281       .  A
O1844     Co1861   2.006       .  S
O1845      C1846   1.282       .  A
O1845     Co1860   1.932   1_655  S
C1846      C2471   1.510       .  S
C1847      C2247   1.513       .  S
C1848      C2230   1.490   1_455  S
C1849      C2415   1.492       .  S
O1850      C1863   1.248       .  A
O1850     Co2694   1.980       .  S
O1851     Co2695   1.950       .  S
O1852      C1865   1.293       .  A
O1852     Co2696   2.073   1_655  S
O1853      C1866   1.279       .  A
O1853     Co2697   2.030       .  S
O1854      C1866   1.258       .  A
O1854     Co2695   1.953       .  S
O1855     Co2694   1.923       .  S
O1856      C1863   1.260       .  A
O1856     Co2697   2.020       .  S
O1857      C1864   1.284       .  A
O1857     Co2696   2.040   1_655  S
Co1858     O2686   2.000       .  S
Co1858     O2691   1.912       .  S
Co1858     O1862   2.004       .  S
Co1859     O2687   1.957       .  S
Co1859     O2690   1.952       .  S
Co1859     O1862   1.990       .  S
Co1860     O2688   2.087   1_455  S
Co1860     O2693   2.029   1_455  S
Co1861     O2689   2.007       .  S
Co1861     O2692   2.023       .  S
Co1861     O1862   1.934       .  S
C1863      C2398   1.486       .  S
C1864      C2258   1.470       .  S
C1865      C2454   1.491       .  S
C1866      C2272   1.470       .  S
O1868      C1876   1.252       .  A
O1868     Co1888   1.956       .  S
O1869      C1877   1.261       .  A
O1869     Co1889   1.977       .  S
O1870     Co1890   2.029       .  S
O1871      C1877   1.265       .  A
O1871     Co1888   1.993   1_556  S
O1872      C1878   1.270   1_455  A
O1873      C1876   1.276       .  A
O1873     Co1890   2.051       .  S
O1874      C1875   1.307       .  A
O1874     Co1889   2.155       .  S
C1876      C2118   1.489       .  S
C1877      C2205   1.494       .  S
C1878      C2135   1.491       .  S
O1879      C1892   1.254       .  A
O1880      C1893   1.268       .  A
O1880     Co1888   1.983   1_556  S
O1881      C1894   1.264       .  A
O1881     Co1889   1.879       .  S
O1882      C1895   1.257       .  A
O1882     Co1890   1.961       .  S
O1883      C1895   1.280       .  A
O1883     Co1888   2.059       .  S
O1885     Co1890   1.981       .  S
O1886      C1893   1.283       .  A
O1886     Co1889   2.034       .  S
Co1887     O1891   2.036       .  S
Co1888     O1891   2.059       .  S
Co1889     O1891   2.023   1_556  S
Co1890     O1891   2.064       .  S
C1892      C2160   1.473       .  S
C1893      C2177   1.514       .  S
C1895      C2146   1.494       .  S
N1896      C1901   1.359       .  A
N1896      C1900   1.353       .  A
N1896      H1928   1.041       .  S
N1897      C1904   1.359       .  A
N1897      C1905   1.363       .  A
N1898      C1903   1.356       .  A
N1898      C1902   1.352       .  A
N1898      H1929   1.041       .  S
N1899      C1906   1.347       .  A
N1899      C1907   1.345       .  A
C1900      C1908   1.390       .  A
C1900      C1916   1.424       .  A
C1901      C1917   1.419       .  A
C1901      C1909   1.384       .  A
C1902      C1910   1.386       .  A
C1902      C1919   1.418       .  A
C1903      C1918   1.420       .  A
C1903      C1911   1.387       .  A
C1904      C1916   1.429       .  A
C1904      C1912   1.387       .  A
C1905      C1919   1.431       .  A
C1905      C1913   1.386       .  A
C1906      C1914   1.385       .  A
C1906      C1917   1.403       .  A
C1907      C1915   1.387       .  A
C1907      C1918   1.410       .  A
C1908      C1909   1.374       .  A
C1908      H1920   1.080       .  S
C1909      H1921   1.081       .  S
C1910      C1911   1.383       .  A
C1910      H1922   1.082       .  S
C1911      H1923   1.082       .  S
C1912      C1913   1.374       .  A
C1912      H1924   1.080       .  S
C1913      H1925   1.080       .  S
C1914      C1915   1.374       .  A
C1914      H1926   1.082       .  S
C1915      H1927   1.082       .  S
C1916      C2174   1.504       .  S
C1917      C2191   1.495       .  S
C1918      C2104   1.494       .  S
C1919      C2090   1.519       .  S
N1930      C1935   1.354       .  A
N1930      C1934   1.355       .  A
N1930      H1962   1.038       .  S
N1931      C1938   1.352       .  A
N1931      C1939   1.349       .  A
N1932      C1937   1.355       .  A
N1932      C1936   1.356       .  A
N1932      H1963   1.039       .  S
N1933      C1940   1.353       .  A
N1933      C1941   1.352       .  A
C1934      C1942   1.390       .  A
C1934      C1950   1.424       .  A
C1935      C1951   1.418       .  A
C1935      C1943   1.386       .  A
C1936      C1944   1.388       .  A
C1936      C1953   1.422       .  A
C1937      C1952   1.420       .  A
C1937      C1945   1.387       .  A
C1938      C1950   1.413       .  A
C1938      C1946   1.386       .  A
C1939      C1953   1.412       .  A
C1939      C1947   1.386       .  A
C1940      C1948   1.386       .  A
C1940      C1951   1.414       .  A
C1941      C1949   1.385       .  A
C1941      C1952   1.411       .  A
C1942      C1943   1.379       .  A
C1942      H1954   1.082       .  S
C1943      H1955   1.082       .  S
C1944      C1945   1.384       .  A
C1944      H1956   1.082       .  S
C1945      H1957   1.083       .  S
C1946      C1947   1.365       .  A
C1946      H1958   1.079       .  S
C1947      H1959   1.083       .  S
C1948      C1949   1.373       .  A
C1948      H1960   1.082       .  S
C1949      H1961   1.082       .  S
C1950      C2202   1.493       .  S
C1951      C2216   1.497       .  S
C1952      C2076   1.494       .  S
C1953      C2065   1.493       .  S
O1964      C1972   1.276       .  A
O1964     Co1984   2.040       .  S
O1965      C1973   1.273       .  A
O1965     Co1985   2.057       .  S
O1966      C1974   1.274       .  A
O1966     Co2822   1.919   1_545  S
O1967      C1975   1.249       .  A
O1967     Co1987   1.942       .  S
O1968      C1974   1.290       .  A
O1968     Co1985   2.101       .  S
O1969      C1975   1.276       .  A
O1969     Co1984   2.083       .  S
O1970      C1973   1.245       .  A
O1970     Co2823   1.952   1_545  S
O1971      C1972   1.272       .  A
O1971     Co1986   1.996       .  S
C1972      C2303   1.505       .  S
C1973      C2062   1.479       .  S
C1974      C2289   1.495       .  S
C1975      C2093   1.514       .  S
O1976      C1989   1.256       .  A
O1976     Co1984   1.966       .  S
O1977      C1990   1.269       .  A
O1977     Co1985   1.887       .  S
O1978      C1991   1.268       .  A
O1978     Co1986   2.016       .  S
O1979      C1992   1.276       .  A
O1979     Co2823   2.036   1_545  S
O1980      C1992   1.264       .  A
O1980     Co1985   1.969       .  S
O1981      C1991   1.254       .  A
O1981     Co1984   1.965       .  S
O1982      C1989   1.279       .  A
O1982     Co1987   2.049       .  S
O1983      C1990   1.299       .  A
O1983     Co2822   2.128   1_545  S
Co1984     O1988   2.069       .  S
Co1985     O2824   2.040   1_545  S
Co1986     O2802   1.905       .  S
Co1986     O2819   2.127       .  S
Co1986     O1988   2.039       .  S
Co1987     O2806   1.946       .  S
Co1987     O2815   2.048       .  S
Co1987     O1988   2.012       .  S
O1988     Co2821   2.046       .  S
C1990      C2317   1.495       .  S
C1991      C2331   1.471       .  S
N1993      C1998   1.340       .  A
N1993      C1997   1.343       .  A
N1993      H2025   1.045       .  S
N1994      C2001   1.354       .  A
N1994      C2002   1.347       .  A
N1995      C2000   1.359       .  A
N1995      C1999   1.359       .  A
N1995      H2026   1.042       .  S
N1996      C2003   1.353       .  A
N1996      C2004   1.351       .  A
C1997      C2005   1.385       .  A
C1997      C2013   1.395       .  A
C1998      C2014   1.396       .  A
C1998      C2006   1.388       .  A
C1999      C2007   1.390       .  A
C1999      C2016   1.433       .  A
C2000      C2015   1.429       .  A
C2000      C2008   1.386       .  A
C2001      C2013   1.411       .  A
C2001      C2009   1.380       .  A
C2002      C2016   1.423       .  A
C2002      C2010   1.393       .  A
C2003      C2011   1.381       .  A
C2003      C2014   1.412       .  A
C2004      C2012   1.388       .  A
C2004      C2015   1.421       .  A
C2005      C2006   1.374       .  A
C2005      H2017   1.082       .  S
C2006      H2018   1.082       .  S
C2007      C2008   1.386       .  A
C2007      H2019   1.082       .  S
C2008      H2020   1.082       .  S
C2009      C2010   1.377       .  A
C2009      H2021   1.082       .  S
C2010      H2022   1.080       .  S
C2011      C2012   1.378       .  A
C2011      H2023   1.082       .  S
C2012      H2024   1.080       .  S
C2013      C2275   1.490       .  S
C2014      C2261   1.482       .  S
C2015      C2132   1.515       .  S
C2016      C2121   1.517       .  S
N2027      C2032   1.353       .  A
N2027      C2031   1.349       .  A
N2027      H2059   1.036       .  S
N2028      C2035   1.353       .  A
N2028      C2036   1.352       .  A
N2029      C2034   1.355       .  A
N2029      C2033   1.355       .  A
N2029      H2060   1.041       .  S
N2030      C2037   1.354       .  A
N2030      C2038   1.351       .  A
C2031      C2039   1.386       .  A
C2031      C2047   1.413       .  A
C2032      C2048   1.415       .  A
C2032      C2040   1.388       .  A
C2033      C2041   1.388       .  A
C2033      C2050   1.418       .  A
C2034      C2049   1.417       .  A
C2034      C2042   1.387       .  A
C2035      C2047   1.418       .  A
C2035      C2043   1.387       .  A
C2036      C2050   1.415       .  A
C2036      C2044   1.386       .  A
C2037      C2045   1.387       .  A
C2037      C2048   1.418       .  A
C2038      C2046   1.386       .  A
C2038      C2049   1.415       .  A
C2039      C2040   1.375       .  A
C2039      H2051   1.082       .  S
C2040      H2052   1.081       .  S
C2041      C2042   1.380       .  A
C2041      H2053   1.082       .  S
C2042      H2054   1.082       .  S
C2043      C2044   1.375       .  A
C2043      H2055   1.082       .  S
C2044      H2056   1.082       .  S
C2045      C2046   1.372       .  A
C2045      H2057   1.082       .  S
C2046      H2058   1.083       .  S
C2047      C2149   1.485       .  S
C2048      C2163   1.488       .  S
C2049      C2233   1.493       .  S
C2050      C2244   1.493       .  S
C2061      C2062   1.402       .  A
C2061      C2066   1.393       .  A
C2061      H2068   1.085       .  S
C2062      C2063   1.419       .  A
C2063      C2064   1.411       .  A
C2063      N2070   1.427       .  S
C2064      C2065   1.402       .  A
C2064      H2069   1.084       .  S
C2065      C2066   1.409       .  A
C2066      N2067   1.429       .  S
N2067      O2071   1.261       .  A
N2067      O2072   1.261       .  A
N2070      O2074   1.261       .  A
N2070      O2073   1.262       .  A
C2075      C2076   1.391       .  A
C2075      C2080   1.400       .  A
C2075      H2082   1.084       .  S
C2076      C2077   1.410       .  A
C2077      C2078   1.412       .  A
C2077      N2084   1.428       .  S
C2078      C2079   1.411       .  A
C2078      H2083   1.083       .  S
C2079      C2080   1.418       .  A
C2080      N2081   1.419       .  S
N2081      O2085   1.260       .  A
N2081      O2086   1.262       .  A
N2084      O2088   1.261       .  A
N2084      O2087   1.262       .  A
C2089      C2090   1.412       .  A
C2089      C2094   1.419       .  A
C2089      H2096   1.084       .  S
C2090      C2091   1.415       .  A
C2091      C2092   1.400       .  A
C2091      N2098   1.431       .  S
C2092      C2093   1.411       .  A
C2092      H2097   1.084       .  S
C2093      C2094   1.418       .  A
C2094      N2095   1.426       .  S
N2095      O2099   1.262       .  A
N2095      O2100   1.262       .  A
N2098      O2102   1.261       .  A
N2098      O2101   1.262       .  A
C2103      C2104   1.395       .  A
C2103      C2108   1.399       .  A
C2103      H2110   1.084       .  S
C2104      C2105   1.413       .  A
C2105      C2106   1.409       .  A
C2105      N2112   1.430       .  S
C2106      C2107   1.406       .  A
C2107      C2108   1.422       .  A
C2108      N2109   1.430       .  S
N2109      O2113   1.262       .  A
N2109      O2114   1.261       .  A
N2112      O2116   1.261       .  A
N2112      O2115   1.263       .  A
C2117      C2118   1.402       .  A
C2117      C2122   1.414       .  A
C2117      H2124   1.083       .  S
C2118      C2119   1.414       .  A
C2119      C2120   1.400       .  A
C2119      N2126   1.426       .  S
C2120      C2121   1.401       .  A
C2120      H2125   1.080       .  S
C2121      C2122   1.423       .  A
C2122      N2123   1.438       .  S
N2123      O2127   1.262       .  A
N2123      O2128   1.263       .  A
N2126      O2130   1.259       .  A
N2126      O2129   1.261       .  A
C2131      C2132   1.404       .  A
C2131      C2136   1.405       .  A
C2131      H2138   1.084       .  S
C2132      C2133   1.423       .  A
C2133      C2134   1.408       .  A
C2133      N2140   1.430       .  S
C2134      C2135   1.401       .  A
C2134      H2139   1.084   1_655  S
C2135      C2136   1.419       .  A
C2136      N2137   1.428       .  S
N2137      O2141   1.262       .  A
N2140      O2144   1.262       .  A
N2140      O2143   1.262       .  A
C2145      C2146   1.411       .  A
C2145      C2150   1.408       .  A
C2145      H2152   1.083       .  S
C2146      C2147   1.409       .  A
C2147      C2148   1.396       .  A
C2147      N2154   1.415       .  S
C2148      C2149   1.395       .  A
C2148      H2153   1.084       .  S
C2149      C2150   1.406       .  A
C2150      N2151   1.428       .  S
N2151      O2155   1.262       .  A
N2151      O2156   1.261       .  A
N2154      O2158   1.259       .  A
N2154      O2157   1.261       .  A
C2159      C2160   1.401       .  A
C2159      C2164   1.406       .  A
C2159      H2166   1.084       .  S
C2160      C2161   1.411       .  A
C2161      C2162   1.391       .  A
C2162      C2163   1.395       .  A
C2162      H2167   1.085       .  S
C2163      C2164   1.415       .  A
C2164      N2165   1.428       .  S
N2165      O2169   1.262       .  A
N2165      O2170   1.262       .  A
N2168      O2172   1.258       .  A
N2168      O2171   1.262       .  A
C2173      C2174   1.408       .  A
C2173      C2178   1.412       .  A
C2173      H2180   1.084       .  S
C2174      C2175   1.416       .  A
C2175      C2176   1.404       .  A
C2175      N2182   1.445       .  S
C2176      C2177   1.419       .  A
C2176      H2181   1.083       .  S
C2177      C2178   1.414       .  A
C2178      N2179   1.426       .  S
N2179      O2183   1.262       .  A
N2179      O2184   1.262       .  A
N2182      O2186   1.262       .  A
N2182      O2185   1.263       .  A
C2187      C2188   1.416       .  A
C2187      C2192   1.419       .  A
C2187      H2194   1.083       .  S
C2188      C2189   1.419       .  A
C2189      C2190   1.390       .  A
C2190      C2191   1.395       .  A
C2190      H2195   1.083       .  S
C2191      C2192   1.408       .  A
C2192      N2193   1.430       .  S
N2193      O2197   1.261       .  A
N2193      O2198   1.263       .  A
N2196      O2200   1.262       .  A
N2196      O2199   1.262       .  A
C2201      C2202   1.403       .  A
C2201      C2206   1.403       .  A
C2201      H2208   1.084       .  S
C2202      C2203   1.412       .  A
C2203      C2204   1.397       .  A
C2203      N2210   1.432       .  S
C2204      C2205   1.412       .  A
C2204      H2209   1.084       .  S
C2205      C2206   1.413       .  A
C2206      N2207   1.426       .  S
N2207      O2211   1.261       .  A
N2207      O2212   1.260       .  A
N2210      O2214   1.258       .  A
N2210      O2213   1.262       .  A
C2215      C2216   1.394       .  A
C2215      C2220   1.394       .  A
C2215      H2222   1.084       .  S
C2216      C2217   1.414       .  A
C2217      C2218   1.415       .  A
C2217      N2224   1.430       .  S
C2218      C2219   1.410       .  A
C2218      H2223   1.083       .  S
C2219      C2220   1.418       .  A
N2221      O2225   1.260       .  A
N2221      O2226   1.262       .  A
N2224      O2228   1.262       .  A
N2224      O2227   1.261       .  A
C2229      C2230   1.408       .  A
C2229      C2234   1.406       .  A
C2229      H2236   1.084       .  S
C2230      C2231   1.418       .  A
C2231      C2232   1.393       .  A
C2232      C2233   1.398       .  A
C2232      H2237   1.085       .  S
C2233      C2234   1.411       .  A
C2234      N2235   1.427       .  S
N2235      O2239   1.262       .  A
N2235      O2240   1.262       .  A
N2238      O2242   1.263       .  A
N2238      O2241   1.262       .  A
C2243      C2244   1.402       .  A
C2243      C2248   1.413       .  A
C2243      H2250   1.083       .  S
C2244      C2245   1.401       .  A
C2245      C2246   1.399       .  A
C2245      N2252   1.432       .  S
C2246      C2247   1.416       .  A
C2246      H2251   1.074       .  S
C2247      C2248   1.420       .  A
C2248      N2249   1.425       .  S
N2249      O2253   1.262       .  A
N2249      O2254   1.261       .  A
N2252      O3092   1.262       .  A
N2252      O2255   1.262       .  A
O2256      N3088   1.262       .  A
C2257      C2258   1.394       .  A
C2257      C2262   1.400       .  A
C2257      H2264   1.081       .  S
C2258      C2259   1.418       .  A
C2259      C2260   1.388       .  A
C2260      C2261   1.390       .  A
C2260      H2265   1.085       .  S
C2261      C2262   1.416       .  A
C2262      N2263   1.425       .  S
N2263      O2267   1.259       .  A
N2263      O2268   1.262       .  A
N2266      O2270   1.258       .  A
N2266      O3105   1.262       .  A
O2269      N3102   1.261       .  A
C2271      C2272   1.392       .  A
C2271      C2276   1.402       .  A
C2271      H2278   1.084       .  S
C2272      C2273   1.416       .  A
C2273      C2274   1.391       .  A
C2273      N2280   1.422       .  S
C2274      C2275   1.391       .  A
C2274      H2279   1.084       .  S
C2275      C2276   1.420       .  A
C2276      N2277   1.424       .  S
N2277      O2281   1.262       .  A
N2277      O2282   1.260       .  A
N2280      O3120   1.261       .  A
N2280      O2283   1.259       .  A
O2284      N3116   1.260       .  A
C2285      C2286   1.390       .  A
C2285      C2290   1.396       .  A
C2285      H2292   1.084       .  S
C2286      C2287   1.411       .  A
C2287      C2288   1.409       .  A
C2287      N2294   1.429       .  S
C2288      C2289   1.407       .  A
C2288      H2293   1.083       .  S
C2289      C2290   1.426       .  A
C2290      N2291   1.428       .  S
N2291      O2295   1.261       .  A
N2291      O2296   1.261       .  A
N2294      O2298   1.260       .  A
N2294      O2297   1.262       .  A
C2299      C2300   1.406       .  A
C2299      C2304   1.413       .  A
C2299      H2306   1.084       .  S
C2300      C2301   1.408       .  A
C2301      C2302   1.403       .  A
C2301      N2308   1.434       .  S
C2302      C2303   1.412       .  A
C2302      H2307   1.076       .  S
C2303      C2304   1.416       .  A
C2304      N2305   1.426       .  S
N2305      O2309   1.262       .  A
N2305      O2310   1.262       .  A
N2308      O2312   1.261       .  A
N2308      O2311   1.262       .  A
C2313      C2318   1.408       .  A
C2313      H2320   1.084       .  S
C2314      C2315   1.416       .  A
C2315      C2316   1.401       .  A
C2315      N2322   1.432       .  S
C2316      H2321   1.069       .  S
C2317      C2318   1.418       .  A
C2318      N2319   1.429       .  S
N2319      O2323   1.262       .  A
N2319      O2324   1.261       .  A
N2322      O2326   1.262       .  A
N2322      O2325   1.262       .  A
C2327      C2332   1.390       .  A
C2327      H2334   1.084       .  S
C2328      C2329   1.408       .  A
C2329      C2330   1.399       .  A
C2329      N2336   1.426       .  S
C2330      H2335   1.084       .  S
C2331      C2332   1.418       .  A
C2332      N2333   1.432       .  S
N2333      O2337   1.262       .  A
N2333      O2338   1.263       .  A
N2336      O2340   1.257       .  A
N2336      O2339   1.262       .  A
C2341      C2342   1.416       .  A
C2341      C2346   1.402       .  A
C2341      H2348   1.083       .  S
C2342      C2343   1.420       .  A
C2343      C2344   1.406       .  A
C2343      N2350   1.427       .  S
C2344      C2345   1.398       .  A
C2344      H2349   1.084       .  S
C2345      C2346   1.403       .  A
C2346      N2347   1.431       .  S
N2347      O2351   1.262       .  A
N2347      O2352   1.262       .  A
N2350      O2354   1.262       .  A
N2350      O2353   1.262       .  A
C2355      C2356   1.394       .  A
C2355      C2360   1.398       .  A
C2355      H2362   1.084       .  S
C2356      C2357   1.417       .  A
C2357      C2358   1.403       .  A
C2357      N2364   1.425       .  S
C2358      C2359   1.400       .  A
C2358      H2363   1.084       .  S
C2359      C2360   1.421       .  A
C2360      N2361   1.423       .  S
N2361      O2365   1.262       .  A
N2361      O2366   1.260       .  A
N2364      O2368   1.262       .  A
N2364      O2367   1.261       .  A
C2369      C2370   1.398       .  A
C2369      C2374   1.397       .  A
C2369      H2376   1.085       .  S
C2370      C2371   1.411       .  A
C2371      C2372   1.400       .  A
C2371      N2378   1.425       .  S
C2372      C2373   1.401       .  A
C2372      H2377   1.084       .  S
C2373      C2374   1.414       .  A
C2374      N2375   1.426       .  S
N2375      O2379   1.262       .  A
N2375      O2380   1.262       .  A
N2378      O2382   1.262       .  A
N2378      O2381   1.261       .  A
C2383      C2384   1.403       .  A
C2383      C2388   1.400       .  A
C2383      H2390   1.082       .  S
C2384      C2385   1.409       .  A
C2385      C2386   1.404       .  A
C2385      N2392   1.428       .  S
C2386      C2387   1.407       .  A
C2386      H2391   1.084       .  S
C2387      C2388   1.410       .  A
C2388      N2389   1.427       .  S
N2389      O2393   1.262       .  A
N2389      O2394   1.261       .  A
N2392      O2396   1.262       .  A
N2392      O2395   1.262       .  A
C2397      C2398   1.404       .  A
C2397      C2402   1.404       .  A
C2397      H2404   1.084       .  S
C2398      C2399   1.412       .  A
C2399      C2400   1.397       .  A
C2399      N2406   1.427       .  S
C2400      C2401   1.401       .  A
C2400      H2405   1.084       .  S
C2401      C2402   1.418       .  A
C2402      N2403   1.430       .  S
N2403      O2407   1.262       .  A
N2403      O2408   1.262       .  A
N2406      O2410   1.262       .  A
N2406      O2409   1.259       .  A
C2411      C2412   1.407       .  A
C2411      C2416   1.405       .  A
C2411      H2418   1.084       .  S
C2412      C2413   1.412       .  A
C2413      C2414   1.402       .  A
C2413      N2420   1.428       .  S
C2414      C2415   1.406       .  A
C2414      H2419   1.082       .  S
C2415      C2416   1.418       .  A
C2416      N2417   1.432       .  S
N2417      O2421   1.262       .  A
N2417      O2422   1.262       .  A
N2420      O2424   1.261       .  A
N2420      O2423   1.262       .  A
C2425      C2426   1.400       .  A
C2425      C2430   1.390       .  A
C2425      H2432   1.085       .  S
C2426      C2427   1.414       .  A
C2427      C2428   1.410       .  A
C2427      N2434   1.428       .  S
C2428      C2429   1.405       .  A
C2428      H2433   1.084       .  S
C2429      C2430   1.408       .  A
C2430      N2431   1.428       .  S
N2431      O2435   1.261       .  A
N2431      O2436   1.262       .  A
N2434      O2438   1.261       .  A
N2434      O2437   1.260       .  A
C2439      C2440   1.393       .  A
C2439      C2444   1.392       .  A
C2439      H2446   1.084       .  S
C2440      C2441   1.404       .  A
C2441      C2442   1.404       .  A
C2441      N2448   1.429       .  S
C2442      C2443   1.411       .  A
C2442      H2447   1.083       .  S
C2443      C2444   1.423       .  A
C2444      N2445   1.430       .  S
N2445      O2449   1.261       .  A
N2445      O2450   1.262       .  A
N2448      O2452   1.261       .  A
N2448      O2451   1.262       .  A
C2453      C2454   1.405       .  A
C2453      C2458   1.400       .  A
C2453      H2460   1.084   1_655  S
C2454      C2455   1.421       .  A
C2455      C2456   1.401       .  A
C2455      N2462   1.426       .  S
C2456      C2457   1.397       .  A
C2456      H2461   1.084       .  S
C2457      C2458   1.412       .  A
C2458      N2459   1.429       .  S
N2459      O2463   1.261       .  A
N2459      O2464   1.262   1_655  A
N2462      O2466   1.262       .  A
N2462      O2465   1.262       .  A
C2467      C2468   1.396       .  A
C2467      C2472   1.402   1_655  A
C2467      H2474   1.084   1_655  S
C2468      C2469   1.410       .  A
C2469      C2470   1.413       .  A
C2469      N2476   1.430       .  S
C2470      C2471   1.413       .  A
C2470      H2475   1.083       .  S
C2471      C2472   1.424   1_655  A
C2472      N2473   1.427       .  S
N2473      O2477   1.260       .  A
N2476      O2480   1.262       .  A
N2476      O2479   1.262       .  A
C2481      C2482   1.399       .  A
C2481      C2486   1.404       .  A
C2481      H2488   1.084       .  S
C2482      C2483   1.417       .  A
C2483      C2484   1.401       .  A
C2483      N2490   1.431       .  S
C2484      C2485   1.407       .  A
C2484      H2489   1.084       .  S
C2485      C2486   1.421       .  A
C2486      N2487   1.429       .  S
N2487      O2491   1.262       .  A
N2487      O2492   1.262       .  A
N2490      O2494   1.262       .  A
N2490      O2493   1.263       .  A
C2495      C2496   1.397       .  A
C2495      C2500   1.405       .  A
C2495      H2502   1.084       .  S
C2496      C2497   1.402       .  A
C2497      C2498   1.396       .  A
C2497      N2504   1.431       .  S
C2498      C2499   1.413       .  A
C2498      H2503   1.084       .  S
C2499      C2500   1.419       .  A
C2500      N2501   1.426       .  S
N2501      O2505   1.260       .  A
N2501      O2506   1.262       .  A
N2504      O2508   1.261       .  A
N2504      O2507   1.262       .  A
N2509      C2514   1.357       .  A
N2509      C2513   1.353       .  A
N2509      H2541   1.040       .  S
N2510      C2517   1.353       .  A
N2510      C2518   1.353       .  A
N2511      C2516   1.356       .  A
N2511      C2515   1.355       .  A
N2511      H2542   1.039       .  S
N2512      C2519   1.353       .  A
N2512      C2520   1.351       .  A
C2513      C2521   1.387       .  A
C2513      C2529   1.419       .  A
C2514      C2530   1.423       .  A
C2514      C2522   1.387       .  A
C2515      C2523   1.386       .  A
C2515      C2532   1.418       .  A
C2516      C2531   1.423       .  A
C2516      C2524   1.388       .  A
C2517      C2529   1.416       .  A
C2517      C2525   1.387       .  A
C2518      C2532   1.417       .  A
C2518      C2526   1.388       .  A
C2519      C2527   1.387       .  A
C2519      C2530   1.417       .  A
C2520      C2528   1.384       .  A
C2520      C2531   1.411       .  A
C2521      C2522   1.378       .  A
C2521      H2533   1.082       .  S
C2522      H2534   1.082       .  S
C2523      C2524   1.376       .  A
C2523      H2535   1.082       .  S
C2524      H2536   1.079       .  S
C2525      C2526   1.370       .  A
C2525      H2537   1.082       .  S
C2526      H2538   1.082       .  S
C2527      C2528   1.373       .  A
C2527      H2539   1.082       .  S
C2528      H2540   1.082       .  S
C2529      C3332   1.488       .  S
C2530      C3321   1.506       .  S
C2531      C3293   1.496       .  S
C2532      C3304   1.490       .  S
N2543      C2548   1.354       .  A
N2543      C2547   1.352       .  A
N2543      H2575   1.029       .  S
N2544      C2551   1.357       .  A
N2544      C2552   1.355       .  A
N2545      C2550   1.361       .  A
N2545      C2549   1.360       .  A
N2545      H2576   1.033       .  S
N2546      C2553   1.354       .  A
N2546      C2554   1.354       .  A
C2547      C2555   1.388       .  A
C2547      C2563   1.416       .  A
C2548      C2564   1.417       .  A
C2548      C2556   1.387       .  A
C2549      C2557   1.388       .  A
C2549      C2566   1.428       .  A
C2550      C2565   1.427       .  A
C2550      C2558   1.386       .  A
C2551      C2563   1.421       .  A
C2551      C2559   1.383       .  A
C2552      C2566   1.425       .  A
C2552      C2560   1.389       .  A
C2553      C2561   1.387       .  A
C2553      C2564   1.419       .  A
C2554      C2562   1.385       .  A
C2554      C2565   1.417       .  A
C2555      C2556   1.378       .  A
C2555      H2567   1.081       .  S
C2556      H2568   1.082       .  S
C2557      C2558   1.379       .  A
C2557      H2569   1.081       .  S
C2558      H2570   1.082       .  S
C2559      C2560   1.372       .  A
C2559      H2571   1.082       .  S
C2560      H2572   1.081       .  S
C2561      C2562   1.373       .  A
C2561      H2573   1.082       .  S
C2562      H2574   1.082       .  S
C2563      C3265   1.499       .  S
C2564      C3276   1.493       .  S
C2565      C3248   1.508       .  S
C2566      C3237   1.503       .  S
O2577      C2585   1.262       .  A
O2577     Co2597   1.995       .  S
O2578      C2586   1.269       .  A
O2578     Co2598   1.989       .  S
O2579      C2587   1.307       .  A
O2579     Co2599   2.136       .  S
O2580      C2588   1.278       .  A
O2581      C2587   1.262       .  A
O2581     Co2598   1.868       .  S
O2582      C2588   1.258       .  A
O2582     Co2597   1.953       .  S
O2583      C2586   1.277       .  A
O2583     Co2600   2.025       .  S
O2584      C2585   1.265       .  A
C2585      C3335   1.500       .  S
C2586      C3178   1.494       .  S
C2587      C3318   1.482       .  S
C2588      C3192   1.484       .  S
O2589      C2602   1.277       .  A
O2589     Co2597   2.039       .  S
O2590      C2603   1.301       .  A
O2590     Co2598   2.134       .  S
O2591      C2604   1.279       .  A
O2592      C2605   1.258       .  A
O2592     Co2600   1.983       .  S
O2593      C2605   1.262       .  A
O2593     Co2598   2.007       .  S
O2594      C2604   1.271       .  A
O2594     Co2597   2.004       .  S
O2595      C2602   1.258       .  A
O2596      C2603   1.260       .  A
O2596     Co2599   1.886       .  S
Co2598     O2601   2.034       .  S
Co2599     O2601   2.003       .  S
Co2600     O2601   2.040       .  S
C2602      C3220   1.489       .  S
C2603      C3262   1.488       .  S
C2604      C3279   1.506       .  S
C2605      C3206   1.478       .  S
N2606      C2611   1.354       .  A
N2606      C2610   1.357       .  A
N2606      H2638   1.025       .  S
N2607      C2614   1.358       .  A
N2607      C2615   1.353       .  A
N2608      C2613   1.362       .  A
N2608      C2612   1.354       .  A
N2608      H2639   1.029       .  S
N2609      C2616   1.346       .  A
N2609      C2617   1.348       .  A
C2610      C2626   1.425       .  A
C2611      C2627   1.418       .  A
C2612      C2620   1.387       .  A
C2612      C2629   1.421       .  A
C2613      C2628   1.428       .  A
C2613      C2621   1.387       .  A
C2614      C2626   1.424       .  A
C2614      C2622   1.386       .  A
C2615      C2629   1.422       .  A
C2615      C2623   1.388       .  A
C2616      C2624   1.388       .  A
C2616      C2627   1.407       .  A
C2617      C2625   1.383       .  A
C2617      C2628   1.400       .  A
C2618      C2619   1.373       .  A
C2618      H2630   1.077       .  S
C2619      H2631   1.082       .  S
C2620      C2621   1.378       .  A
C2620      H2632   1.082       .  S
C2621      H2633   1.081       .  S
C2622      C2623   1.372       .  A
C2622      H2634   1.082       .  S
C2623      H2635   1.082       .  S
C2624      C2625   1.369       .  A
C2624      H2636   1.082       .  S
C2625      H2637   1.083       .  S
C2626      C3150   1.505       .  S
C2627      C3164   1.480       .  S
C2628      C3195   1.503       .  S
C2629      C3181   1.488       .  S
N2640      C2645   1.352       .  A
N2640      C2644   1.359       .  A
N2640      H2672   1.040       .  S
N2641      C2648   1.351       .  A
N2641      C2649   1.347       .  A
N2642      C2647   1.355       .  A
N2642      C2646   1.351       .  A
N2642      H2673   1.040       .  S
N2643      C2650   1.354       .  A
N2643      C2651   1.357       .  A
C2644      C2652   1.386       .  A
C2644      C2660   1.423       .  A
C2645      C2661   1.421       .  A
C2645      C2653   1.388       .  A
C2646      C2654   1.387       .  A
C2646      C2663   1.416       .  A
C2647      C2662   1.419       .  A
C2647      C2655   1.387       .  A
C2648      C2660   1.406       .  A
C2648      C2656   1.382       .  A
C2649      C2663   1.412       .  A
C2649      C2657   1.389       .  A
C2650      C2658   1.388       .  A
C2650      C2661   1.422       .  A
C2651      C2659   1.385       .  A
C2651      C2662   1.422       .  A
C2652      C2653   1.369       .  A
C2652      H2664   1.081       .  S
C2653      H2665   1.082       .  S
C2654      C2655   1.375       .  A
C2654      H2666   1.082       .  S
C2655      H2667   1.080       .  S
C2656      C2657   1.372       .  A
C2656      H2668   1.082       .  S
C2657      H2669   1.082       .  S
C2658      C2659   1.374       .  A
C2658      H2670   1.082       .  S
C2659      H2671   1.082       .  S
C2660      C3209   1.502       .  S
C2661      C3223   1.488       .  S
C2662      C3136   1.504       .  S
C2663      C3122   1.482       .  S
O2674     Co2694   2.074   1_565  S
O2675      C2683   1.277       .  A
O2675     Co2695   2.020   1_565  S
O2676      C2684   1.257       .  A
O2676     Co2696   1.984   1_565  S
O2677      C2685   1.283       .  A
O2677     Co2697   1.878   1_565  S
O2678     Co2695   1.997   1_565  S
O2679      C2685   1.312       .  A
O2679     Co2694   2.125   1_565  S
O2680      C2683   1.276       .  A
O2680     Co2697   1.999   1_565  S
O2681      C2682   1.280       .  A
O2681     Co2696   1.931   1_665  S
C2682      C3307   1.502       .  S
C2683      C3083   1.494       .  S
C2684      C3066   1.483   1_455  S
C2685      C3251   1.497       .  S
O2686      C2699   1.253       .  A
O2688      C2701   1.293   1_655  A
O2689      C2702   1.275       .  A
O2690      C2702   1.259       .  A
O2692      C2699   1.261       .  A
O2693      C2700   1.284       .  A
Co2694     O2698   2.008       .  S
Co2695     O2698   1.997       .  S
Co2697     O2698   1.932       .  S
C2699      C3234   1.503       .  S
C2700      C3094   1.465       .  S
C2701      C3290   1.497   1_455  S
C2702      C3108   1.456       .  S
O2704      C2712   1.249       .  A
O2704     Co2724   1.950       .  S
O2705      C2713   1.264       .  A
O2705     Co2725   1.990       .  S
O2706     Co2726   2.040       .  S
O2707      C2713   1.259       .  A
O2707     Co2724   1.976   1_556  S
O2708      C2714   1.273       .  A
O2709      C2712   1.275       .  A
O2709     Co2726   2.060       .  S
O2710      C2711   1.305       .  A
O2710     Co2725   2.151       .  S
C2712      C2954   1.495       .  S
C2713      C3041   1.487       .  S
C2714      C2971   1.493       .  S
O2715      C2728   1.255       .  A
O2716      C2729   1.269       .  A
O2716     Co2724   1.990   1_556  S
O2717      C2730   1.266       .  A
O2717     Co2725   1.885       .  S
O2718      C2731   1.253       .  A
O2718     Co2726   1.954       .  S
O2719      C2731   1.275       .  A
O2719     Co2724   2.051       .  S
O2721     Co2726   1.975       .  S
O2722      C2729   1.280       .  A
O2722     Co2725   2.031       .  S
Co2723     O2727   2.042       .  S
Co2724     O2727   2.056       .  S
Co2725     O2727   2.034   1_556  S
Co2726     O2727   2.063       .  S
C2728      C2996   1.457       .  S
C2729      C3013   1.515       .  S
C2731      C2982   1.476       .  S
N2732      C2737   1.359       .  A
N2732      C2736   1.354       .  A
N2732      H2764   1.042       .  S
N2733      C2740   1.360       .  A
N2733      C2741   1.362       .  A
N2734      C2739   1.358       .  A
N2734      C2738   1.352       .  A
N2734      H2765   1.042       .  S
N2735      C2742   1.346       .  A
N2735      C2743   1.347       .  A
C2736      C2744   1.390       .  A
C2736      C2752   1.426       .  A
C2737      C2753   1.421       .  A
C2737      C2745   1.385       .  A
C2738      C2746   1.387       .  A
C2738      C2755   1.421       .  A
C2739      C2754   1.425       .  A
C2739      C2747   1.387       .  A
C2740      C2752   1.427       .  A
C2740      C2748   1.386       .  A
C2741      C2755   1.431       .  A
C2741      C2749   1.387       .  A
C2742      C2750   1.383       .  A
C2742      C2753   1.401       .  A
C2743      C2751   1.386       .  A
C2743      C2754   1.411       .  A
C2744      C2745   1.377       .  A
C2744      H2756   1.081       .  S
C2745      H2757   1.081       .  S
C2746      C2747   1.384       .  A
C2746      H2758   1.082       .  S
C2747      H2759   1.082       .  S
C2748      C2749   1.374       .  A
C2748      H2760   1.080       .  S
C2749      H2761   1.080       .  S
C2750      C2751   1.374       .  A
C2750      H2762   1.082       .  S
C2751      H2763   1.081       .  S
C2752      C3010   1.506       .  S
C2753      C3027   1.499       .  S
C2754      C2940   1.507       .  S
C2755      C2926   1.519       .  S
N2766      C2771   1.352       .  A
N2766      C2770   1.355       .  A
N2766      H2798   1.039       .  S
N2767      C2774   1.351       .  A
N2767      C2775   1.349       .  A
N2768      C2773   1.356       .  A
N2768      C2772   1.356       .  A
N2768      H2799   1.040       .  S
N2769      C2776   1.352       .  A
N2769      C2777   1.351       .  A
C2770      C2778   1.388       .  A
C2770      C2786   1.420       .  A
C2771      C2787   1.418       .  A
C2771      C2779   1.387       .  A
C2772      C2780   1.387       .  A
C2772      C2789   1.422       .  A
C2773      C2788   1.421       .  A
C2773      C2781   1.387       .  A
C2774      C2786   1.412       .  A
C2774      C2782   1.385       .  A
C2775      C2789   1.411       .  A
C2775      C2783   1.387       .  A
C2776      C2784   1.386       .  A
C2776      C2787   1.413       .  A
C2777      C2785   1.386       .  A
C2777      C2788   1.411       .  A
C2778      C2779   1.379       .  A
C2778      H2790   1.082       .  S
C2779      H2791   1.082       .  S
C2780      C2781   1.385       .  A
C2780      H2792   1.082       .  S
C2781      H2793   1.082       .  S
C2782      C2783   1.362       .  A
C2782      H2794   1.080       .  S
C2783      H2795   1.082       .  S
C2784      C2785   1.374       .  A
C2784      H2796   1.082       .  S
C2785      H2797   1.082       .  S
C2786      C3038   1.489       .  S
C2787      C3052   1.494       .  S
C2788      C2912   1.496       .  S
C2789      C2901   1.491       .  S
O2800      C2808   1.279       .  A
O2800     Co2820   2.043       .  S
O2801      C2809   1.270       .  A
O2801     Co2821   2.058       .  S
O2802      C2810   1.272       .  A
O2803      C2811   1.248       .  A
O2803     Co2823   1.938       .  S
O2804      C2810   1.291       .  A
O2804     Co2821   2.100       .  S
O2805      C2811   1.277       .  A
O2805     Co2820   2.084       .  S
O2806      C2809   1.243       .  A
O2807      C2808   1.275       .  A
O2807     Co2822   1.999       .  S
C2808      C3139   1.507       .  S
C2809      C2898   1.477       .  S
C2810      C3125   1.484       .  S
C2811      C2929   1.512       .  S
O2812      C2825   1.260       .  A
O2812     Co2820   1.981       .  S
O2813      C2826   1.270       .  A
O2813     Co2821   1.893       .  S
O2814      C2827   1.267       .  A
O2814     Co2822   2.005       .  S
O2815      C2828   1.279       .  A
O2816      C2828   1.267       .  A
O2816     Co2821   1.974       .  S
O2817      C2827   1.255       .  A
O2817     Co2820   1.965       .  S
O2818      C2825   1.282       .  A
O2818     Co2823   2.061       .  S
O2819      C2826   1.301       .  A
Co2820     O2824   2.069       .  S
Co2822     O2824   2.040       .  S
Co2823     O2824   2.015       .  S
C2826      C3153   1.496       .  S
C2827      C3167   1.468       .  S
N2829      C2834   1.340       .  A
N2829      C2833   1.342       .  A
N2829      H2861   1.045       .  S
N2830      C2837   1.352       .  A
N2830      C2838   1.346       .  A
N2831      C2836   1.356       .  A
N2831      C2835   1.356       .  A
N2831      H2862   1.042       .  S
N2832      C2839   1.354       .  A
N2832      C2840   1.352       .  A
C2833      C2841   1.386       .  A
C2833      C2849   1.395       .  A
C2834      C2850   1.398       .  A
C2834      C2842   1.388       .  A
C2835      C2843   1.388       .  A
C2835      C2852   1.426       .  A
C2836      C2851   1.425       .  A
C2836      C2844   1.387       .  A
C2837      C2849   1.413       .  A
C2837      C2845   1.383       .  A
C2838      C2852   1.417       .  A
C2838      C2846   1.390       .  A
C2839      C2847   1.386       .  A
C2839      C2850   1.422       .  A
C2840      C2848   1.386       .  A
C2840      C2851   1.419       .  A
C2841      C2842   1.378       .  A
C2841      H2853   1.082       .  S
C2842      H2854   1.082       .  S
C2843      C2844   1.385       .  A
C2843      H2855   1.082       .  S
C2844      H2856   1.082       .  S
C2845      C2846   1.375       .  A
C2845      H2857   1.082       .  S
C2846      H2858   1.079       .  S
C2847      C2848   1.381       .  A
C2847      H2859   1.082       .  S
C2848      H2860   1.082       .  S
C2849      C3111   1.489       .  S
C2850      C3097   1.496       .  S
C2851      C2968   1.510       .  S
C2852      C2957   1.505       .  S
N2863      C2868   1.350       .  A
N2863      C2867   1.351       .  A
N2863      H2895   1.042       .  S
N2864      C2871   1.349       .  A
N2864      C2872   1.348       .  A
N2865      C2870   1.357       .  A
N2865      C2869   1.354       .  A
N2865      H2896   1.040       .  S
N2866      C2873   1.349       .  A
N2866      C2874   1.350       .  A
C2867      C2875   1.387       .  A
C2867      C2883   1.409       .  A
C2868      C2884   1.409       .  A
C2868      C2876   1.387       .  A
C2869      C2877   1.384       .  A
C2869      C2886   1.418       .  A
C2870      C2885   1.430       .  A
C2870      C2878   1.390       .  A
C2871      C2883   1.405       .  A
C2871      C2879   1.384       .  A
C2872      C2886   1.412       .  A
C2872      C2880   1.389       .  A
C2873      C2881   1.383       .  A
C2873      C2884   1.404       .  A
C2874      C2882   1.387       .  A
C2874      C2885   1.414       .  A
C2875      C2876   1.376       .  A
C2875      H2887   1.082       .  S
C2876      H2888   1.082       .  S
C2877      C2878   1.384       .  A
C2877      H2889   1.082       .  S
C2878      H2890   1.082       .  S
C2879      C2880   1.376       .  A
C2879      H2891   1.082       .  S
C2880      H2892   1.082       .  S
C2881      C2882   1.374       .  A
C2881      H2893   1.082       .  S
C2882      H2894   1.082       .  S
C2883      C2985   1.481       .  S
C2884      C2999   1.478       .  S
C2885      C3069   1.507       .  S
C2886      C3080   1.489       .  S
C2897      C2898   1.403       .  A
C2897      C2902   1.394       .  A
C2897      H2904   1.085       .  S
C2898      C2899   1.414       .  A
C2899      C2900   1.409       .  A
C2899      N2906   1.425       .  S
C2900      C2901   1.403       .  A
C2900      H2905   1.084       .  S
C2901      C2902   1.411       .  A
C2902      N2903   1.430       .  S
N2903      O2907   1.262       .  A
N2903      O2908   1.261       .  A
N2906      O2910   1.261       .  A
N2906      O2909   1.262       .  A
C2911      C2912   1.391       .  A
C2911      C2916   1.402       .  A
C2911      H2918   1.084       .  S
C2912      C2913   1.411       .  A
C2913      C2914   1.415       .  A
C2913      N2920   1.429       .  S
C2914      C2915   1.412       .  A
C2914      H2919   1.083       .  S
C2915      C2916   1.418       .  A
C2916      N2917   1.421       .  S
N2917      O2921   1.258       .  A
N2917      O2922   1.262       .  A
N2920      O2924   1.262       .  A
N2920      O2923   1.262       .  A
C2925      C2926   1.414       .  A
C2925      C2930   1.419       .  A
C2925      H2932   1.084       .  S
C2926      C2927   1.414       .  A
C2927      C2928   1.400       .  A
C2927      N2934   1.430       .  S
C2928      C2929   1.411       .  A
C2928      H2933   1.084       .  S
C2929      C2930   1.418       .  A
C2930      N2931   1.427       .  S
N2931      O2935   1.262       .  A
N2931      O2936   1.262       .  A
N2934      O2938   1.261       .  A
N2934      O2937   1.262       .  A
C2939      C2940   1.398       .  A
C2939      C2944   1.403       .  A
C2939      H2946   1.084       .  S
C2940      C2941   1.417       .  A
C2941      C2942   1.413       .  A
C2941      N2948   1.433       .  S
C2942      C2943   1.408       .  A
C2943      C2944   1.423       .  A
C2944      N2945   1.428       .  S
N2945      O2949   1.262       .  A
N2945      O2950   1.261       .  A
N2948      O2952   1.262       .  A
N2948      O2951   1.263       .  A
C2953      C2954   1.407       .  A
C2953      C2958   1.414       .  A
C2953      H2960   1.083       .  S
C2954      C2955   1.423       .  A
C2955      C2956   1.398       .  A
C2955      N2962   1.429       .  S
C2956      C2957   1.396       .  A
C2956      H2961   1.083       .  S
C2957      C2958   1.417       .  A
C2958      N2959   1.435       .  S
N2959      O2963   1.262       .  A
N2959      O2964   1.263       .  A
N2962      O2966   1.260       .  A
N2962      O2965   1.262       .  A
C2967      C2968   1.403       .  A
C2967      C2972   1.405       .  A
C2967      H2974   1.084       .  S
C2968      C2969   1.419       .  A
C2969      C2970   1.410       .  A
C2969      N2976   1.429       .  S
C2970      C2971   1.403       .  A
C2970      H2975   1.084   1_655  S
C2971      C2972   1.418       .  A
C2972      N2973   1.428       .  S
N2973      O2977   1.262       .  A
N2976      O2980   1.262       .  A
N2976      O2979   1.262       .  A
C2981      C2982   1.405       .  A
C2981      C2986   1.406       .  A
C2981      H2988   1.084       .  S
C2982      C2983   1.408       .  A
C2983      C2984   1.397       .  A
C2983      N2990   1.424       .  S
C2984      C2985   1.398       .  A
C2984      H2989   1.084       .  S
C2985      C2986   1.407       .  A
C2986      N2987   1.429       .  S
N2987      O2991   1.262       .  A
N2987      O2992   1.262       .  A
N2990      O2994   1.262       .  A
N2990      O2993   1.258       .  A
C2995      C2996   1.398       .  A
C2995      C3000   1.399       .  A
C2995      H3002   1.084       .  S
C2996      C2997   1.408       .  A
C2997      C2998   1.391       .  A
C2998      C2999   1.400       .  A
C2998      H3003   1.085       .  S
C2999      C3000   1.411       .  A
C3000      N3001   1.427       .  S
N3001      O3005   1.262       .  A
N3001      O3006   1.262       .  A
N3004      O3008   1.259       .  A
N3004      O3007   1.262       .  A
C3009      C3010   1.410       .  A
C3009      C3014   1.414       .  A
C3009      H3016   1.084       .  S
C3010      C3011   1.415       .  A
C3011      C3012   1.404       .  A
C3011      N3018   1.444       .  S
C3012      C3013   1.418       .  A
C3012      H3017   1.083       .  S
C3013      C3014   1.415       .  A
C3014      N3015   1.427       .  S
N3015      O3019   1.262       .  A
N3015      O3020   1.262       .  A
N3018      O3022   1.263       .  A
N3018      O3021   1.263       .  A
C3023      C3024   1.416       .  A
C3023      C3028   1.418       .  A
C3023      H3030   1.083       .  S
C3024      C3025   1.417       .  A
C3025      C3026   1.393       .  A
C3026      C3027   1.399       .  A
C3026      H3031   1.084       .  S
C3027      C3028   1.408       .  A
C3028      N3029   1.430       .  S
N3029      O3033   1.261       .  A
N3029      O3034   1.262       .  A
N3032      O3036   1.262       .  A
N3032      O3035   1.262       .  A
C3037      C3038   1.404       .  A
C3037      C3042   1.404       .  A
C3037      H3044   1.084       .  S
C3038      C3039   1.411       .  A
C3039      C3040   1.394       .  A
C3039      N3046   1.432       .  S
C3040      C3041   1.407       .  A
C3040      H3045   1.084       .  S
C3041      C3042   1.416       .  A
C3042      N3043   1.430       .  S
N3043      O3047   1.261       .  A
N3043      O3048   1.261       .  A
N3046      O3050   1.258       .  A
N3046      O3049   1.262       .  A
C3051      C3052   1.393       .  A
C3051      C3056   1.396       .  A
C3051      H3058   1.085       .  S
C3052      C3053   1.412       .  A
C3053      C3054   1.415       .  A
C3053      N3060   1.431       .  S
C3054      C3055   1.410       .  A
C3054      H3059   1.083       .  S
C3055      C3056   1.419       .  A
N3057      O3061   1.259       .  A
N3057      O3062   1.262       .  A
N3060      O3064   1.262       .  A
N3060      O3063   1.261       .  A
C3065      C3066   1.399       .  A
C3065      C3070   1.408       .  A
C3065      H3072   1.084   1_655  S
C3066      C3067   1.418       .  A
C3067      C3068   1.395       .  A
C3068      C3069   1.398       .  A
C3068      H3073   1.084       .  S
C3069      C3070   1.425       .  A
C3070      N3071   1.430       .  S
N3071      O3075   1.262       .  A
N3071      O3076   1.262       .  A
N3074      O3078   1.261       .  A
N3074      O3077   1.262       .  A
C3079      C3080   1.406       .  A
C3079      C3084   1.412       .  A
C3079      H3086   1.083       .  S
C3080      C3081   1.402       .  A
C3081      C3082   1.397       .  A
C3081      N3088   1.431       .  S
C3082      C3083   1.409       .  A
C3082      H3087   1.079       .  S
C3083      C3084   1.414       .  A
C3084      N3085   1.426       .  S
N3085      O3089   1.262       .  A
N3085      O3090   1.262       .  A
N3088      O3091   1.262       .  A
C3093      C3094   1.385       .  A
C3093      C3098   1.399       .  A
C3093      H3100   1.082       .  S
C3094      C3095   1.408       .  A
C3095      C3096   1.386       .  A
C3096      C3097   1.394       .  A
C3096      H3101   1.082       .  S
C3097      C3098   1.426       .  A
C3098      N3099   1.422       .  S
N3099      O3103   1.259       .  A
N3099      O3104   1.262       .  A
N3102      O3106   1.258       .  A
C3107      C3108   1.383       .  A
C3107      C3112   1.396       .  A
C3107      H3114   1.085       .  S
C3108      C3109   1.409       .  A
C3109      C3110   1.385       .  A
C3109      N3116   1.420       .  S
C3110      C3111   1.394       .  A
C3110      H3115   1.083       .  S
C3111      C3112   1.422       .  A
C3112      N3113   1.423       .  S
N3113      O3117   1.262       .  A
N3113      O3118   1.261       .  A
N3116      O3119   1.259       .  A
C3121      C3122   1.391       .  A
C3121      C3126   1.393       .  A
C3121      H3128   1.085       .  S
C3122      C3123   1.407       .  A
C3123      C3124   1.404       .  A
C3123      N3130   1.430       .  S
C3124      C3125   1.407       .  A
C3124      H3129   1.084       .  S
C3125      C3126   1.424       .  A
C3126      N3127   1.429       .  S
N3127      O3131   1.260       .  A
N3127      O3132   1.261       .  A
N3130      O3134   1.261       .  A
N3130      O3133   1.262       .  A
C3135      C3136   1.408       .  A
C3135      C3140   1.417       .  A
C3135      H3142   1.083       .  S
C3136      C3137   1.405       .  A
C3137      C3138   1.400       .  A
C3137      N3144   1.433       .  S
C3138      C3139   1.411       .  A
C3138      H3143   1.073       .  S
C3139      C3140   1.417       .  A
C3140      N3141   1.427       .  S
N3141      O3145   1.262       .  A
N3141      O3146   1.262       .  A
N3144      O3148   1.261       .  A
N3144      O3147   1.262       .  A
C3149      C3154   1.404       .  A
C3149      H3156   1.084       .  S
C3150      C3151   1.415       .  A
C3151      C3152   1.404       .  A
C3151      N3158   1.430       .  S
C3152      H3157   1.071       .  S
C3153      C3154   1.418       .  A
C3154      N3155   1.428       .  S
N3155      O3159   1.261       .  A
N3155      O3160   1.262       .  A
N3158      O3162   1.262       .  A
N3158      O3161   1.262       .  A
C3163      C3168   1.393       .  A
C3163      H3170   1.084       .  S
C3164      C3165   1.410       .  A
C3165      C3166   1.406       .  A
C3165      N3172   1.429       .  S
C3166      H3171   1.084       .  S
C3167      C3168   1.418       .  A
C3168      N3169   1.432       .  S
N3169      O3173   1.262       .  A
N3169      O3174   1.263       .  A
N3172      O3176   1.259       .  A
N3172      O3175   1.262       .  A
C3177      C3178   1.411       .  A
C3177      C3182   1.399       .  A
C3177      H3184   1.083       .  S
C3178      C3179   1.418       .  A
C3179      C3180   1.407       .  A
C3179      N3186   1.427       .  S
C3180      C3181   1.400       .  A
C3180      H3185   1.084       .  S
C3181      C3182   1.403       .  A
C3182      N3183   1.430       .  S
N3183      O3187   1.262       .  A
N3183      O3188   1.261       .  A
N3186      O3190   1.262       .  A
N3186      O3189   1.262       .  A
C3191      C3192   1.395       .  A
C3191      C3196   1.397       .  A
C3191      H3198   1.084       .  S
C3192      C3193   1.419       .  A
C3193      C3194   1.401       .  A
C3193      N3200   1.425       .  S
C3194      C3195   1.399       .  A
C3194      H3199   1.084       .  S
C3195      C3196   1.423       .  A
C3196      N3197   1.427       .  S
N3197      O3201   1.261       .  A
N3197      O3202   1.261       .  A
N3200      O3204   1.262       .  A
N3200      O3203   1.261       .  A
C3205      C3206   1.399       .  A
C3205      C3210   1.400       .  A
C3205      H3212   1.084       .  S
C3206      C3207   1.408       .  A
C3207      C3208   1.402       .  A
C3207      N3214   1.422       .  S
C3208      C3209   1.403       .  A
C3208      H3213   1.084       .  S
C3209      C3210   1.417       .  A
C3210      N3211   1.428       .  S
N3211      O3215   1.262       .  A
N3211      O3216   1.261       .  A
N3214      O3218   1.262       .  A
N3214      O3217   1.262       .  A
C3219      C3220   1.407       .  A
C3219      C3224   1.399       .  A
C3219      H3226   1.084       .  S
C3220      C3221   1.420       .  A
C3221      C3222   1.403       .  A
C3221      N3228   1.429       .  S
C3222      C3223   1.399       .  A
C3222      H3227   1.084       .  S
C3223      C3224   1.406       .  A
C3224      N3225   1.428       .  S
N3225      O3229   1.259       .  A
N3225      O3230   1.260       .  A
N3228      O3232   1.262       .  A
N3228      O3231   1.262       .  A
C3233      C3234   1.407       .  A
C3233      C3238   1.407       .  A
C3233      H3240   1.083       .  S
C3234      C3235   1.415       .  A
C3235      C3236   1.404       .  A
C3235      N3242   1.421       .  S
C3236      C3237   1.399       .  A
C3236      H3241   1.084       .  S
C3237      C3238   1.415       .  A
C3238      N3239   1.428       .  S
N3239      O3243   1.262       .  A
N3239      O3244   1.262       .  A
N3242      O3246   1.262       .  A
N3242      O3245   1.256       .  A
C3247      C3248   1.406       .  A
C3247      C3252   1.405       .  A
C3247      H3254   1.084       .  S
C3248      C3249   1.415       .  A
C3249      C3250   1.406       .  A
C3249      N3256   1.429       .  S
C3250      C3251   1.408       .  A
C3250      H3255   1.084       .  S
C3251      C3252   1.415       .  A
C3252      N3253   1.429       .  S
N3253      O3257   1.262       .  A
N3253      O3258   1.262   1_565  A
N3256      O3260   1.262       .  A
N3256      O3259   1.262       .  A
C3261      C3262   1.403       .  A
C3261      C3266   1.396       .  A
C3261      H3268   1.085       .  S
C3262      C3263   1.412       .  A
C3263      C3264   1.413       .  A
C3263      N3270   1.425       .  S
C3264      C3265   1.407       .  A
C3264      H3269   1.083       .  S
C3265      C3266   1.410       .  A
C3266      N3267   1.429       .  S
N3267      O3271   1.261       .  A
N3267      O3272   1.262       .  A
N3270      O3274   1.262       .  A
N3270      O3273   1.259       .  A
C3275      C3276   1.392       .  A
C3275      C3280   1.397       .  A
C3275      H3282   1.085       .  S
C3276      C3277   1.408       .  A
C3277      C3278   1.412       .  A
C3277      N3284   1.429       .  S
C3278      C3279   1.413       .  A
C3278      H3283   1.083       .  S
C3279      C3280   1.428       .  A
C3280      N3281   1.429       .  S
N3281      O3285   1.262       .  A
N3281      O3286   1.262       .  A
N3284      O3288   1.261       .  A
N3284      O3287   1.262       .  A
C3289      C3290   1.407       .  A
C3289      C3294   1.404       .  A
C3289      H3296   1.083   1_655  S
C3290      C3291   1.422       .  A
C3291      C3292   1.403       .  A
C3291      N3298   1.427       .  S
C3292      C3293   1.399       .  A
C3292      H3297   1.084       .  S
C3293      C3294   1.413       .  A
C3294      N3295   1.429       .  S
N3295      O3299   1.261       .  A
N3295      O3300   1.262   1_655  A
N3298      O3302   1.262       .  A
N3298      O3301   1.261       .  A
C3303      C3304   1.391       .  A
C3303      C3308   1.396   1_655  A
C3303      H3310   1.085   1_655  S
C3304      C3305   1.407       .  A
C3305      C3306   1.411       .  A
C3305      N3312   1.429       .  S
C3306      C3307   1.412       .  A
C3306      H3311   1.083       .  S
C3307      C3308   1.423   1_655  A
C3308      N3309   1.424       .  S
N3309      O3313   1.259       .  A
N3312      O3316   1.262       .  A
N3312      O3315   1.262       .  A
C3317      C3318   1.397       .  A
C3317      C3322   1.401       .  A
C3317      H3324   1.084       .  S
C3318      C3319   1.417       .  A
C3319      C3320   1.402       .  A
C3319      N3326   1.432       .  S
C3320      C3321   1.406       .  A
C3320      H3325   1.084       .  S
C3321      C3322   1.419       .  A
C3322      N3323   1.428       .  S
N3323      O3327   1.262       .  A
N3323      O3328   1.262       .  A
N3326      O3330   1.262       .  A
N3326      O3329   1.262       .  A
C3331      C3332   1.399       .  A
C3331      C3336   1.408       .  A
C3331      H3338   1.084       .  S
C3332      C3333   1.403       .  A
C3333      C3334   1.396       .  A
C3333      N3340   1.430       .  S
C3334      C3335   1.412       .  A
C3334      H3339   1.083       .  S
C3335      C3336   1.421       .  A
C3336      N3337   1.425       .  S
N3337      O3341   1.260       .  A
N3337      O3342   1.262       .  A
N3340      O3344   1.262       .  A
N3340      O3343   1.262       .  A
