geometry optimzed in LAMMPS
_audit_creation_date              2020-11-30 
_audit_creation_method            'lammps2cif' 
_symmetry_space_group_name_H-M    'P1' 
_symmetry_Int_Tables_number       1 
_symmetry_cell_setting            triclinic 
loop_ 
_symmetry_equiv_pos_as_xyz 
  x,y,z 
_cell_length_a                    49.82705769 
_cell_length_b                    49.76021250759714 
_cell_length_c                    49.78955470425787 
_cell_angle_alpha                 89.98815459150693 
_cell_angle_beta                  90.03206935423154 
_cell_angle_gamma                 89.98881828579573 
loop_ 
_atom_site_label 
_atom_site_type_symbol 
_atom_site_fract_x 
_atom_site_fract_y 
_atom_site_fract_z 
_atom_site_charge 
C1          C  0.13504270  0.72432190  0.97539829     0.80500
N2          N  0.10780554  0.72534767  0.97571943    -0.77800
C3          C  0.09454368  0.72829119  0.99937956     0.83000
N4          N  0.10868839  0.73067619  0.02261812    -0.77700
C5          C  0.13594238  0.72994598  0.02227893     0.83100
N6          N  0.14893332  0.72663414  0.99864026    -0.79400
C7          C  0.34017849  0.54138167  0.02332664     0.80500
N8          N  0.33910946  0.55512043  0.99982986    -0.77800
C9          C  0.34306809  0.54252862  0.97596583     0.83000
N10         N  0.34784321  0.51561155  0.97570068    -0.77700
C11         C  0.34887092  0.50152406  0.99913929     0.83100
N12         N  0.34517178  0.51452782  0.02291122    -0.79400
C13         C  0.02162491  0.22737087  0.01947442     0.80500
N14         N  0.04887693  0.22763299  0.02118526    -0.77800
C15         C  0.06417779  0.22463810  0.99870584     0.83000
N16         N  0.05209590  0.22140593  0.97443926    -0.77700
C17         C  0.02489491  0.22096501  0.97254569     0.83100
N18         N  0.00993109  0.22400261  0.99510650    -0.79400
C19         C  0.83583584  0.43550484  0.97568168     0.80500
N20         N  0.83468592  0.42177355  0.99920368    -0.77800
C21         C  0.83156839  0.43503338  0.02280326     0.83000
N22         N  0.82919667  0.46218506  0.02289208    -0.77700
C23         C  0.83000643  0.47606519  0.99943690     0.83100
N24         N  0.83334970  0.46268037  0.97589681    -0.79400
C25         C  0.80874340  0.01186131  0.05731494     0.80500
N26         N  0.80733851  0.98774354  0.07004483    -0.77800
C27         C  0.80918919  0.96443511  0.05587852     0.83000
N28         N  0.81258096  0.96541790  0.02876169    -0.77700
C29         C  0.81386877  0.98949386  0.01589427     0.83100
N30         N  0.81208178  0.01257229  0.03028788    -0.79400
C31         C  0.63691490  0.01077748  0.26728696     0.80500
N32         N  0.60969699  0.01144157  0.26588313    -0.77800
C33         C  0.59543440  0.98820705  0.26391545     0.83000
N34         N  0.60855487  0.96424084  0.26311831    -0.77700
C35         C  0.63578762  0.96346883  0.26456383     0.83100
N36         N  0.64970269  0.98678212  0.26669887    -0.79400
C37         C  0.33002250  0.96767542  0.94287385     0.80500
N38         N  0.32813917  0.96678479  0.97011751    -0.77800
C39         C  0.32800598  0.98993398  0.98468185     0.83000
N40         N  0.32973605  0.01399182  0.97197930    -0.77700
C41         C  0.33174452  0.01490083  0.94489634     0.83100
N42         N  0.33178192  0.99184399  0.93047929    -0.79400
C43         C  0.52382634  0.96686725  0.72270896     0.80500
N44         N  0.51034418  0.99062812  0.72229334    -0.77800
C45         C  0.52384279  0.01434511  0.72382226     0.83000
N46         N  0.55103481  0.01397093  0.72589155    -0.77700
C47         C  0.56467270  0.99036118  0.72658503     0.83100
N48         N  0.55098239  0.96680440  0.72511363    -0.79400
C49         C  0.02474356  0.72912357  0.02445474     0.80500
N50         N  0.01066881  0.72930098  0.00113475    -0.77800
C51         C  0.02353082  0.72941175  0.97712118     0.83000
N52         N  0.05082229  0.72913204  0.97658848    -0.77700
C53         C  0.06508211  0.72891572  0.99991437     0.83100
N54         N  0.05195518  0.72908849  0.02383779    -0.79400
C55         C  0.81941819  0.54591273  0.02276885     0.80500
N56         N  0.82339766  0.51888382  0.02282795    -0.77800
C57         C  0.82579361  0.50520022  0.99933572     0.83000
N58         N  0.82405049  0.51858425  0.97566156    -0.77700
C59         C  0.81966414  0.54545639  0.97544567     0.83100
N60         N  0.81754272  0.55906398  0.99894664    -0.79400
C61         C  0.13609987  0.23042664  0.97983601     0.80500
N62         N  0.10890672  0.22827756  0.97795033    -0.77800
C63         C  0.09363344  0.22587959  0.00054499     0.83000
N64         N  0.10566682  0.22551028  0.02503011    -0.77700
C65         C  0.13273359  0.22739109  0.02694877     0.83100
N66         N  0.14780605  0.22997339  0.00443694    -0.79400
C67         C  0.35592405  0.43150105  0.97497076     0.80500
N68         N  0.35705551  0.41788742  0.99858034    -0.77800
C69         C  0.35685700  0.43109619  0.02250029     0.83000
N70         N  0.35503183  0.45838194  0.02226621    -0.77700
C71         C  0.35334605  0.47225684  0.99880610     0.83100
N72         N  0.35371628  0.45869938  0.97514983    -0.79400
C73         C  0.82588695  0.01687881  0.94785890     0.80500
N74         N  0.82139803  0.01526508  0.97469836    -0.77800
C75         C  0.81852882  0.99090020  0.98676139     0.83000
N76         N  0.82000061  0.96809522  0.97175486    -0.77700
C77         C  0.82428369  0.96969159  0.94481846     0.83100
N78         N  0.82725748  0.99407573  0.93310246    -0.79400
C79         C  0.63379655  0.01389859  0.74071197     0.80500
N80         N  0.64749749  0.99042964  0.73947825    -0.77800
C81         C  0.63482339  0.96695511  0.73423018     0.83000
N82         N  0.60789559  0.96692581  0.72991356    -0.77700
C83         C  0.59388768  0.99038088  0.73066703     0.83100
N84         N  0.60688257  0.01379229  0.73622968    -0.79400
C85         C  0.32637486  0.01190931  0.05560293     0.80500
N86         N  0.32296699  0.98797121  0.06817686    -0.77800
C87         C  0.32133563  0.96468160  0.05411424     0.83000
N88         N  0.32275190  0.96539776  0.02691433    -0.77700
C89         C  0.32608236  0.98915841  0.01400099     0.83100
N90         N  0.32809675  0.01226854  0.02838792    -0.79400
C91         C  0.52437717  0.96716599  0.25726476     0.80500
N92         N  0.55157959  0.96610854  0.25910125    -0.77800
C93         C  0.56599984  0.98912812  0.26222763     0.83000
N94         N  0.55306099  0.01313759  0.26369369    -0.77700
C95         C  0.52588548  0.01412925  0.26225423     0.83100
N96         N  0.51166295  0.99116728  0.25895154    -0.79400
C97         C  0.05437637  0.04467974  0.72370542     0.80500
N98         N  0.05549151  0.01754486  0.72086321    -0.77800
C99         C  0.07959457  0.00462225  0.72079533     0.83000
N100        N  0.10263426  0.01914665  0.72407940    -0.77700
C101        C  0.10156483  0.04639475  0.72721097     0.83100
N102        N  0.07733909  0.05886282  0.72703896    -0.79400
C103        C  0.05403809  0.25068743  0.55413323     0.80500
N104        N  0.05549324  0.24925920  0.52700195    -0.77800
C105        C  0.07968107  0.24946013  0.51448902     0.83000
N106        N  0.10258039  0.25086995  0.52935437    -0.77700
C107        C  0.10133103  0.25228624  0.55664876     0.83100
N108        N  0.07693097  0.25222516  0.56889290    -0.79400
C109        C  0.10474337  0.93431521  0.71545991     0.80500
N110        N  0.10428692  0.96164607  0.71698885    -0.77800
C111        C  0.08040608  0.97493617  0.71817136     0.83000
N112        N  0.05710709  0.96056265  0.71850578    -0.77700
C113        C  0.05747189  0.93318906  0.71757868     0.83100
N114        N  0.08140749  0.92034972  0.71607601    -0.79400
C115        C  0.05518282  0.72895402  0.55560812     0.80500
N116        N  0.07849567  0.72785372  0.56951287    -0.77800
C117        C  0.10225097  0.72519442  0.55650854     0.83000
N118        N  0.10253092  0.72389616  0.52924064    -0.77700
C119        C  0.07918518  0.72508416  0.51514526     0.83100
N120        N  0.05547433  0.72746501  0.52842273    -0.79400
C121        C  0.10027432  0.93282562  0.24248886     0.80500
N122        N  0.07614522  0.92046002  0.24456132    -0.77800
C123        C  0.05306797  0.93486030  0.24463761     0.83000
N124        N  0.05407988  0.96207967  0.24259749    -0.77700
C125        C  0.07816136  0.97480612  0.24070990     0.83100
N126        N  0.10123977  0.96008745  0.24063452    -0.79400
C127        C  0.10317233  0.72471755  0.44472874     0.80500
N128        N  0.07960244  0.72210432  0.43137426    -0.77800
C129        C  0.05603154  0.72077231  0.44477277     0.83000
N130        N  0.05597655  0.72176700  0.47199915    -0.77700
C131        C  0.07947515  0.72376129  0.48571482     0.83100
N132        N  0.10304521  0.72547559  0.47202947    -0.79400
C133        C  0.05780203  0.04657946  0.23640944     0.80500
N134        N  0.08205589  0.05858099  0.23474470    -0.77800
C135        C  0.10488979  0.04397404  0.23512131     0.83000
N136        N  0.10357759  0.01680789  0.23716909    -0.77700
C137        C  0.07932457  0.00432238  0.23849191     0.83100
N138        N  0.05636304  0.01929735  0.23821783    -0.79400
C139        C  0.10569354  0.24429688  0.44487590     0.80500
N140        N  0.10468321  0.24514114  0.47216184    -0.77800
C141        C  0.08077882  0.24811198  0.48500985     0.83000
N142        N  0.05771128  0.24998686  0.47046201    -0.77700
C143        C  0.05843697  0.24918117  0.44320540     0.83100
N144        N  0.08247571  0.24651800  0.43075228    -0.79400
C145        C  0.32490662  0.46358236  0.44505719     0.80500
N146        N  0.32339935  0.48697802  0.43101790    -0.77800
C147        C  0.32486006  0.51101598  0.44388388     0.83000
N148        N  0.32806230  0.51151969  0.47094022    -0.77700
C149        C  0.32969215  0.48827482  0.48510482     0.83100
N150        N  0.32815771  0.46431643  0.47211354    -0.79400
C151        C  0.13541575  0.46183168  0.26381368     0.80500
N152        N  0.10841729  0.46354378  0.26103677    -0.77800
C153        C  0.09638910  0.48795029  0.25969742     0.83000
N154        N  0.11155681  0.51068374  0.26066566    -0.77700
C155        C  0.13865251  0.50901908  0.26334296     0.83100
N156        N  0.15036641  0.48451469  0.26502969    -0.79400
O157        O  0.28703654  0.73620697  0.17285182    -0.86200
O158        O  0.28488955  0.73658208  0.32497838    -0.86300
O159        O  0.25532228  0.69220859  0.24926197    -0.88000
O160        O  0.25153949  0.77959731  0.24778270    -0.86800
O161        O  0.28250517  0.81374561  0.24628106    -0.86400
O162        O  0.28938328  0.66111248  0.25029960    -0.87700
O163        O  0.25279013  0.73604535  0.29197647    -0.86200
O164        O  0.25404064  0.73401045  0.20485517    -0.85800
Zr165      Zr  0.27555498  0.73675741  0.24864373     2.84300
O166        O  0.30080663  0.76557702  0.27580692    -1.07800
O167        O  0.30400205  0.71031969  0.22208307    -1.08500
C168        C  0.26228111  0.73446193  0.18027774     1.06900
C169        C  0.26025665  0.73562463  0.31683433     1.06900
C170        C  0.26431575  0.66788373  0.25026145     1.09900
C171        C  0.25820742  0.80468863  0.24664211     1.07600
H172        H  0.29291193  0.69940207  0.28761675     0.33200
O173        O  0.30358678  0.71105502  0.27635650    -1.28700
H174        H  0.28988895  0.77544003  0.20960298     0.32900
O175        O  0.30135908  0.76495172  0.22122311    -1.30400
O176        O  0.37203305  0.74307758  0.32624371    -0.86200
O177        O  0.37357407  0.74041456  0.17336268    -0.87700
O178        O  0.33394813  0.66379272  0.29411783    -0.86200
O179        O  0.32339850  0.81665122  0.29125734    -0.86300
O180        O  0.32814738  0.81521164  0.20472349    -0.86000
O181        O  0.33376217  0.66249810  0.20576919    -0.85800
O182        O  0.40790218  0.69898522  0.25127461    -0.86200
O183        O  0.40398431  0.78652444  0.24879450    -0.85600
O184        O  0.37689585  0.66479897  0.24994221    -0.86700
O185        O  0.36975946  0.81735078  0.24809791    -0.85900
O186        O  0.33243294  0.69655160  0.32644502    -0.86300
O187        O  0.33291795  0.69499367  0.17309854    -0.86000
O188        O  0.33011599  0.78208352  0.17278688    -0.85600
O189        O  0.32464787  0.78440615  0.32424218    -0.86000
O190        O  0.40511670  0.74377944  0.29414756    -0.86300
O191        O  0.40585482  0.74266090  0.20617547    -0.87700
Zr192      Zr  0.32885431  0.73994090  0.30350400     2.83100
Zr193      Zr  0.33027047  0.73855345  0.19531525     2.83500
Zr194      Zr  0.33226158  0.68489303  0.24974637     2.84100
Zr195      Zr  0.32701883  0.79343555  0.24842841     2.83400
Zr196      Zr  0.38381884  0.74180009  0.25004197     2.84200
O197        O  0.35582971  0.76728081  0.22220723    -1.08300
O198        O  0.35758813  0.71368635  0.27705623    -1.07800
C199        C  0.39682832  0.74418521  0.31874200     1.06900
C200        C  0.39812239  0.74202216  0.18136965     1.09500
C201        C  0.33379952  0.67170857  0.31888792     1.07100
C202        C  0.32298749  0.80904960  0.31603531     1.07400
C203        C  0.32932151  0.80696237  0.18017798     1.07000
C204        C  0.33391224  0.67025701  0.18091707     1.06600
C205        C  0.40117519  0.67388595  0.25063218     1.07000
C206        C  0.39487962  0.81085697  0.24826353     1.06500
H207        H  0.37036713  0.70226766  0.21180486     0.33200
O208        O  0.35852371  0.71299308  0.22280088    -1.29400
H209        H  0.36551077  0.78021659  0.28770360     0.33200
O210        O  0.35513730  0.76820100  0.27653053    -1.30700
C211        C  0.52461367  0.22328986  0.47308709     0.80500
N212        N  0.51059739  0.22790494  0.49591656    -0.77800
C213        C  0.52288107  0.23085849  0.51997173     0.83000
N214        N  0.55005626  0.22909542  0.52115898    -0.77700
C215        C  0.56459435  0.22454274  0.49846844     0.83100
N216        N  0.55182657  0.22172182  0.47445351    -0.79400
C217        C  0.31049970  0.04494194  0.47546148     0.80500
N218        N  0.31189379  0.01776778  0.47582640    -0.77800
C219        C  0.31318685  0.00430321  0.49947370     0.83000
N220        N  0.31342369  0.01824866  0.52301002    -0.77700
C221        C  0.31212040  0.04557626  0.52274177     0.83100
N222        N  0.31063492  0.05877136  0.49890586    -0.79400
O223        O  0.33494718  0.16130582  0.78947872    -0.86200
O224        O  0.32974980  0.31320739  0.79429239    -0.86300
O225        O  0.37634984  0.23643955  0.82198237    -0.88000
O226        O  0.29065972  0.23695686  0.82837996    -0.86800
O227        O  0.25621262  0.23909892  0.79809297    -0.86400
O228        O  0.40741799  0.23845022  0.78791563    -0.87700
O229        O  0.33355528  0.27967948  0.82563847    -0.86200
O230        O  0.33252400  0.19250729  0.82312722    -0.85800
Zr231      Zr  0.33173216  0.23661385  0.80224154     2.84300
O232        O  0.30236855  0.26598497  0.77948848    -1.07800
O233        O  0.35987628  0.21067219  0.77427049    -1.08500
C234        C  0.33389071  0.16813953  0.81439322     1.06900
C235        C  0.33218221  0.30468549  0.81867252     1.06900
C236        C  0.40064276  0.23728340  0.81300223     1.09900
C237        C  0.26551379  0.23804967  0.82235141     1.07600
H238        H  0.36834832  0.27601250  0.78530771     0.33200
O239        O  0.35674119  0.26497104  0.77435206    -1.28700
H240        H  0.29211038  0.19688986  0.78809842     0.32900
O241        O  0.30253195  0.20866947  0.77692262    -1.30400
O242        O  0.32827963  0.31723955  0.70805570    -0.86200
O243        O  0.32255382  0.16568443  0.70388240    -0.87700
O244        O  0.40414599  0.28436470  0.74510363    -0.86200
O245        O  0.25248833  0.28207504  0.75556539    -0.86300
O246        O  0.25515298  0.19441869  0.74790728    -0.86000
O247        O  0.40771658  0.19816279  0.74192238    -0.85800
O248        O  0.36902058  0.24302141  0.67041677    -0.86200
O249        O  0.28244281  0.23809688  0.67639522    -0.85600
O250        O  0.40371234  0.24208587  0.70059521    -0.86700
O251        O  0.25170488  0.23507486  0.71019281    -0.85900
O252        O  0.37120987  0.31641159  0.74863387    -0.86300
O253        O  0.37598089  0.16497188  0.74511338    -0.86000
O254        O  0.28779737  0.16251850  0.74436319    -0.85600
O255        O  0.28462002  0.31485032  0.75225073    -0.86000
O256        O  0.32864036  0.28585054  0.67458473    -0.86300
O257        O  0.32128242  0.19888123  0.67255050    -0.87700
Zr258      Zr  0.32799772  0.29282545  0.74995001     2.83100
Zr259      Zr  0.33120590  0.18546328  0.74745698     2.83500
Zr260      Zr  0.38330491  0.23987244  0.74498887     2.84100
Zr261      Zr  0.27553744  0.23879431  0.75273198     2.83400
Zr262      Zr  0.32711810  0.24161380  0.69538682     2.84200
O263        O  0.31994111  0.23035630  0.74025410    -1.08300
O264        O  0.35567484  0.26895554  0.71994341    -1.07800
C265        C  0.32884280  0.31031495  0.68315013     1.06900
C266        C  0.32074159  0.17402843  0.67954757     1.09500
C267        C  0.39605739  0.30903099  0.74672680     1.07100
C268        C  0.26009241  0.30687577  0.75450025     1.07400
C269        C  0.26302324  0.16982577  0.74588385     1.07000
C270        C  0.40045778  0.17336585  0.74269059     1.06600
C271        C  0.39418009  0.24273958  0.67649340     1.07000
C272        C  0.25826572  0.23666133  0.68525649     1.06500
H273        H  0.36650522  0.20100303  0.70501289     0.33200
O274        O  0.35611540  0.21175761  0.71738099    -1.29400
H275        H  0.28640664  0.27861689  0.71205651     0.33200
O276        O  0.29842544  0.26720981  0.72258822    -1.30700
C277        C  0.52278727  0.75694502  0.47639992     0.80500
N278        N  0.55005976  0.75770312  0.47708768    -0.77800
C279        C  0.56327999  0.75484958  0.50081779     0.83000
N280        N  0.54915716  0.75102389  0.52380206    -0.77700
C281        C  0.52197413  0.75010625  0.52324732     0.83100
N282        N  0.50892509  0.75305888  0.49952449    -0.79400
C283        C  0.31994535  0.93367461  0.52192328     0.80500
N284        N  0.31815062  0.96091574  0.52242385    -0.77800
C285        C  0.31498415  0.97485428  0.49917090     0.83000
N286        N  0.31355332  0.96142275  0.47539515    -0.77700
C287        C  0.31523037  0.93418491  0.47476748     0.83100
N288        N  0.31848113  0.92055149  0.49810627    -0.79400
C289        C  0.34128847  0.46656226  0.55511357     0.80500
N290        N  0.34343252  0.49056493  0.56781808    -0.77800
C291        C  0.34105566  0.51383856  0.55385735     0.83000
N292        N  0.33638799  0.51310153  0.52701396    -0.77700
C293        C  0.33444571  0.48911138  0.51412078     0.83100
N294        N  0.33677521  0.46589379  0.52824516    -0.79400
C295        C  0.13584308  0.46746189  0.75043832     0.80500
N296        N  0.14859360  0.49148027  0.74931052    -0.77800
C297        C  0.13446340  0.51472943  0.74976455     0.83000
N298        N  0.10731579  0.51414281  0.75139946    -0.77700
C299        C  0.09424135  0.49022577  0.75234897     0.83100
N300        N  0.10856522  0.46688542  0.75196992    -0.79400
O301        O  0.28702898  0.73809997  0.82647494    -0.86200
O302        O  0.28433096  0.73485775  0.67445802    -0.86300
O303        O  0.25272450  0.78193266  0.74743329    -0.88000
O304        O  0.25468100  0.69492640  0.75157223    -0.86800
O305        O  0.28785587  0.66323962  0.74886018    -0.86400
O306        O  0.28438632  0.81530603  0.74674269    -0.87700
O307        O  0.25258282  0.73553396  0.70785609    -0.86200
O308        O  0.25397393  0.73943030  0.79451438    -0.85800
Zr309      Zr  0.27570384  0.73888010  0.75065751     2.84300
O310        O  0.30260115  0.71157102  0.72350828    -1.07800
O311        O  0.30236466  0.76705277  0.77701479    -1.08500
C312        C  0.26218250  0.73826996  0.81910586     1.06900
C313        C  0.25984458  0.73414152  0.68303280     1.06900
C314        C  0.25986026  0.80684692  0.74595163     1.09900
C315        C  0.26298291  0.67042021  0.75013933     1.07600
H316        H  0.28987604  0.77664070  0.71072019     0.33200
O317        O  0.30138739  0.76608028  0.72224829    -1.28700
H318        H  0.29264587  0.70076313  0.78901378     0.32900
O319        O  0.30343772  0.71222395  0.77766865    -1.30400
O320        O  0.37153296  0.73925051  0.67300547    -0.86200
O321        O  0.37358384  0.74132879  0.82625070    -0.87700
O322        O  0.32936106  0.81552914  0.70461820    -0.86200
O323        O  0.33294101  0.66319262  0.70703644    -0.86300
O324        O  0.33194170  0.66330437  0.79390852    -0.86000
O325        O  0.32804903  0.81640270  0.79196536    -0.85800
O326        O  0.40527284  0.78537917  0.74592492    -0.86200
O327        O  0.40699415  0.69869294  0.74945789    -0.85600
O328        O  0.37180800  0.81700569  0.74551026    -0.86700
O329        O  0.37539945  0.66542877  0.75218138    -0.85900
O330        O  0.32779264  0.78218335  0.67277989    -0.86300
O331        O  0.32784931  0.78435909  0.82516058    -0.86000
O332        O  0.33172111  0.69618576  0.82621929    -0.85600
O333        O  0.33039824  0.69494124  0.67376972    -0.86000
O334        O  0.40483284  0.74012644  0.70493154    -0.86300
O335        O  0.40590984  0.74259294  0.79342322    -0.87700
Zr336      Zr  0.32852702  0.73875099  0.69555544     2.83100
Zr337      Zr  0.33024692  0.74028525  0.80395205     2.83500
Zr338      Zr  0.32855195  0.79402241  0.74861167     2.84100
Zr339      Zr  0.33111017  0.68581645  0.75045227     2.83400
Zr340      Zr  0.38382258  0.74147578  0.74926263     2.84200
O341        O  0.35796050  0.71374294  0.77700228    -1.08300
O342        O  0.35563781  0.76695809  0.72167113    -1.07800
C343        C  0.39633443  0.73955623  0.68038483     1.06900
C344        C  0.39820668  0.74211801  0.81828346     1.09500
C345        C  0.32855554  0.80710127  0.68009839     1.07100
C346        C  0.33224837  0.67042918  0.68211120     1.07400
C347        C  0.33221160  0.67128803  0.81858748     1.07000
C348        C  0.32740926  0.80894729  0.81680271     1.06600
C349        C  0.39675388  0.80985972  0.74450525     1.07000
C350        C  0.39987880  0.67383535  0.75109287     1.06500
H351        H  0.36753254  0.77999637  0.78727277     0.33200
O352        O  0.35650059  0.76827616  0.77641800    -1.29400
H353        H  0.36853593  0.70201770  0.71168691     0.33200
O354        O  0.35714091  0.71315647  0.72273919    -1.30700
C355        C  0.81369537  0.51260088  0.44496070     0.80500
N356        N  0.81375130  0.48842563  0.43220947    -0.77800
C357        C  0.81403962  0.46507675  0.44633685     0.83000
N358        N  0.81486982  0.46582273  0.47360199    -0.77700
C359        C  0.81492708  0.48985205  0.48662335     0.83100
N360        N  0.81416500  0.51300596  0.47223765    -0.79400
C361        C  0.02835982  0.51626944  0.25352528     0.80500
N362        N  0.01300333  0.49369705  0.25357006    -0.77800
C363        C  0.02467135  0.46904676  0.25460698     0.83000
N364        N  0.05184236  0.46712010  0.25619263    -0.77700
C365        C  0.06720910  0.48975047  0.25667331     0.83100
N366        N  0.05538333  0.51424890  0.25525444    -0.79400
C367        C  0.60684957  0.54434997  0.25365819     0.80500
N368        N  0.58423281  0.55907488  0.24975360    -0.77800
C369        C  0.55991786  0.54683795  0.24746580     0.83000
N370        N  0.55865014  0.51960399  0.24932475    -0.77700
C371        C  0.58115821  0.50483198  0.25367972     0.83100
N372        N  0.60523461  0.51728858  0.25584595    -0.79400
C373        C  0.60223129  0.74884433  0.05708308     0.80500
N374        N  0.60287493  0.74764240  0.02986294    -0.77800
C375        C  0.57978173  0.74994536  0.01549177     0.83000
N376        N  0.55612711  0.75370522  0.02843015    -0.77700
C377        C  0.55528386  0.75492923  0.05563883     0.83100
N378        N  0.57841660  0.75217736  0.06981209    -0.79400
O379        O  0.82551235  0.81405038  0.20608172    -0.86200
O380        O  0.82846420  0.66189213  0.20786316    -0.86300
O381        O  0.87086269  0.73805521  0.17372707    -0.88000
O382        O  0.78263716  0.73672008  0.17703956    -0.86800
O383        O  0.75163643  0.73363358  0.21082646    -0.86400
O384        O  0.90443814  0.73917102  0.20526689    -0.87700
O385        O  0.82753269  0.69447338  0.17513003    -0.86200
O386        O  0.82580271  0.78108697  0.17386835    -0.85800
Zr387      Zr  0.82753246  0.73786227  0.19699578     2.84300
O388        O  0.80212192  0.70986006  0.22511364    -1.07800
O389        O  0.85516503  0.76575902  0.22262968    -1.08500
C390        C  0.82516620  0.80591908  0.18143537     1.06900
C391        C  0.82772096  0.66984015  0.18310734     1.06900
C392        C  0.89588562  0.73844825  0.18076475     1.09900
C393        C  0.75825241  0.73489571  0.18580433     1.07600
H394        H  0.86758518  0.70038810  0.21190091     0.33200
O395        O  0.85653201  0.71155474  0.22326518    -1.28700
H396        H  0.78817480  0.77503532  0.21379698     0.32900
O397        O  0.80019784  0.76428308  0.22458619    -1.30400
O398        O  0.83186901  0.66263663  0.29540301    -0.86200
O399        O  0.83025112  0.81595507  0.29249238    -0.87700
O400        O  0.90693835  0.69639353  0.24985079    -0.86200
O401        O  0.75549093  0.69152127  0.25679588    -0.86300
O402        O  0.75195568  0.77908854  0.25522564    -0.86000
O403        O  0.90428712  0.78390173  0.24759100    -0.85800
O404        O  0.87459224  0.73899464  0.32663537    -0.86200
O405        O  0.78861481  0.74183798  0.32907753    -0.85600
O406        O  0.90623231  0.73896242  0.29320542    -0.86700
O407        O  0.75502023  0.73720496  0.29824625    -0.85900
O408        O  0.87530503  0.66312266  0.25247052    -0.86300
O409        O  0.87082937  0.81560738  0.24685090    -0.86000
O410        O  0.78361375  0.81271419  0.25379810    -0.85600
O411        O  0.78924708  0.66059452  0.25772207    -0.86000
O412        O  0.82926374  0.69577489  0.32751462    -0.86300
O413        O  0.83029503  0.78402669  0.32558355    -0.87700
Zr414      Zr  0.83120566  0.68425185  0.25171008     2.83100
Zr415      Zr  0.82796582  0.79237702  0.24997330     2.83500
Zr416      Zr  0.88361335  0.73957553  0.24955416     2.84100
Zr417      Zr  0.77534995  0.73629922  0.25334983     2.83400
Zr418      Zr  0.83101927  0.73947748  0.30514667     2.84200
O419        O  0.80242557  0.76518983  0.27850694    -1.08300
O420        O  0.85818794  0.71231454  0.27798516    -1.07800
C421        C  0.82997426  0.67095852  0.31985495     1.06900
C422        C  0.83050367  0.80866528  0.31733269     1.09500
C423        C  0.89982990  0.67144872  0.25133967     1.07100
C424        C  0.76431036  0.66718737  0.25916463     1.07400
C425        C  0.75928414  0.80393923  0.25551230     1.07000
C426        C  0.89572461  0.80839877  0.24646243     1.06600
C427        C  0.89902857  0.73853055  0.31817910     1.07000
C428        C  0.76360540  0.74004615  0.32262955     1.06500
H429        H  0.86822093  0.77840301  0.28761731     0.33200
O430        O  0.85687975  0.76679135  0.27697598    -1.29400
H431        H  0.79362543  0.69989294  0.29156563     0.33200
O432        O  0.80424228  0.71085343  0.27961775    -1.30700
C433        C  0.63265210  0.75037194  0.52664067     0.80500
N434        N  0.60549366  0.75202158  0.52570724    -0.77800
C435        C  0.59269665  0.75441720  0.50166950     0.83000
N436        N  0.60718996  0.75482925  0.47851122    -0.77700
C437        C  0.63439466  0.75335174  0.47948548     0.83100
N438        N  0.64691711  0.75112661  0.50350378    -0.79400
C439        C  0.81989193  0.93471732  0.52238040     0.80500
N440        N  0.82158606  0.96194557  0.52232242    -0.77800
C441        C  0.82478327  0.97564098  0.49897874     0.83000
N442        N  0.82610026  0.96206904  0.47539551    -0.77700
C443        C  0.82423181  0.93490629  0.47519700     0.83100
N444        N  0.82122007  0.92128288  0.49864360    -0.79400
C445        C  0.60325527  0.54630294  0.75109218     0.80500
N446        N  0.57977419  0.55987674  0.74898525    -0.77800
C447        C  0.55621031  0.54634839  0.74813534     0.83000
N448        N  0.55602679  0.51916044  0.74928979    -0.77700
C449        C  0.57946433  0.50541830  0.75109647     0.83100
N450        N  0.60310886  0.51903430  0.75219600    -0.79400
C451        C  0.55698108  0.74109057  0.94519478     0.80500
N452        N  0.55675885  0.74488579  0.97224720    -0.77800
C453        C  0.58012367  0.74649438  0.98628290     0.83000
N454        N  0.60387743  0.74418013  0.97326027    -0.77700
C455        C  0.60440839  0.74028320  0.94635103     0.83100
N456        N  0.58099506  0.73882138  0.93236223    -0.79400
C457        C  0.82535919  0.51560292  0.55572628     0.80500
N458        N  0.82342416  0.49246213  0.56993268    -0.77800
C459        C  0.81827082  0.46861971  0.55783496     0.83000
N460        N  0.81515219  0.46803332  0.53073780    -0.77700
C461        C  0.81721624  0.49094487  0.51603852     0.83100
N462        N  0.82227500  0.51472823  0.52859894    -0.79400
C463        C  0.02316548  0.51249725  0.75528415     0.80500
N464        N  0.05045161  0.51300222  0.75402201    -0.77800
C465        C  0.06476894  0.48967430  0.75374155     0.83000
N466        N  0.05169480  0.46576342  0.75445584    -0.77700
C467        C  0.02452375  0.46505031  0.75577944     0.83100
N468        N  0.01038583  0.48838535  0.75629255    -0.79400
O469        O  0.87336527  0.74151426  0.82620283    -0.86200
O470        O  0.87260484  0.74241218  0.67406787    -0.86300
O471        O  0.90586392  0.69784256  0.75215938    -0.88000
O472        O  0.90506115  0.78512534  0.74699253    -0.86800
O473        O  0.87313862  0.81828683  0.74759758    -0.86400
O474        O  0.87319246  0.66534753  0.75318510    -0.87700
O475        O  0.90467993  0.73901889  0.70663384    -0.86200
O476        O  0.90593413  0.74187241  0.79360953    -0.85800
Zr477      Zr  0.88328175  0.74137858  0.75034404     2.84300
O478        O  0.85653716  0.76865288  0.72300922    -1.07800
O479        O  0.85635215  0.71493585  0.77819873    -1.08500
C480        C  0.89809615  0.74155134  0.81831464     1.06900
C481        C  0.89725659  0.74065229  0.68186180     1.06900
C482        C  0.89797426  0.67312773  0.75337942     1.09900
C483        C  0.89771589  0.81003728  0.74648695     1.07600
H484        H  0.86744904  0.70239592  0.71251811     0.33200
O485        O  0.85635171  0.71385347  0.72355017    -1.28700
H486        H  0.86827305  0.78067828  0.78818416     0.32900
O487        O  0.85682247  0.76940052  0.77730404    -1.30400
O488        O  0.78584432  0.73975318  0.67429735    -0.86200
O489        O  0.78539770  0.74503857  0.82632771    -0.87700
O490        O  0.82787590  0.66510771  0.70772198    -0.86200
O491        O  0.82775435  0.81790782  0.70609274    -0.86300
O492        O  0.83066166  0.81879176  0.79329765    -0.86000
O493        O  0.82950336  0.66639115  0.79558471    -0.85800
O494        O  0.75335082  0.69762888  0.75168543    -0.86200
O495        O  0.75323082  0.78511717  0.75173043    -0.85600
O496        O  0.78581681  0.66519250  0.75396739    -0.86700
O497        O  0.78571045  0.81780958  0.75153485    -0.85900
O498        O  0.82900023  0.69755521  0.67479482    -0.86300
O499        O  0.82693713  0.69953335  0.82726724    -0.86000
O500        O  0.83019556  0.78672697  0.82644056    -0.85600
O501        O  0.82800403  0.78479459  0.67402154    -0.86000
O502        O  0.75317465  0.74110020  0.70662557    -0.86300
O503        O  0.75297160  0.74259290  0.79377126    -0.87700
Zr504      Zr  0.82920799  0.74125176  0.69652779     2.83100
Zr505      Zr  0.82934267  0.74284098  0.80466494     2.83500
Zr506      Zr  0.82932394  0.68742948  0.75142803     2.84100
Zr507      Zr  0.82949681  0.79610222  0.74989627     2.83400
Zr508      Zr  0.77526058  0.74157350  0.75042384     2.84200
O509        O  0.80219014  0.76939387  0.77716906    -1.08300
O510        O  0.80216626  0.71401384  0.72368302    -1.07800
C511        C  0.76110139  0.74025526  0.68191866     1.06900
C512        C  0.76066558  0.74410331  0.81847442     1.09500
C513        C  0.82829046  0.67296891  0.68297213     1.07100
C514        C  0.82735212  0.80966191  0.68149411     1.07400
C515        C  0.83071014  0.81133571  0.81816368     1.07000
C516        C  0.82762414  0.67459359  0.82011979     1.06600
C517        C  0.76105777  0.67287710  0.75361877     1.07000
C518        C  0.76103228  0.80985069  0.75189087     1.06500
H519        H  0.79097695  0.70427082  0.78956906     0.33200
O520        O  0.80227382  0.71509429  0.77811898    -1.29400
H521        H  0.79063185  0.77982881  0.71187886     0.33200
O522        O  0.80202252  0.76881186  0.72309103    -1.30700
C523        C  0.55422393  0.43581215  0.25703656     0.80500
N524        N  0.55540050  0.46297473  0.25527728    -0.77800
C525        C  0.57953358  0.47559049  0.25651981     0.83000
N526        N  0.60232695  0.46093483  0.25980093    -0.77700
C527        C  0.60119887  0.43371108  0.26140938     0.83100
N528        N  0.57705556  0.42134113  0.25975755    -0.79400
C529        C  0.60018477  0.23971210  0.05533830     0.80500
N530        N  0.57610231  0.23951008  0.06803074    -0.77800
C531        C  0.55302453  0.23811121  0.05362248     0.83000
N532        N  0.55394326  0.23737521  0.02647418    -0.77700
C533        C  0.57791311  0.23786986  0.01361765     0.83100
N534        N  0.60106523  0.23884340  0.02807477    -0.79400
O535        O  0.86852969  0.24068391  0.17084595    -0.86200
O536        O  0.87654170  0.24221064  0.32362206    -0.86300
O537        O  0.90426260  0.28700524  0.24632692    -0.88000
O538        O  0.90720140  0.20000499  0.24474566    -0.86800
O539        O  0.87604569  0.16605580  0.24528172    -0.86400
O540        O  0.87048691  0.31807704  0.24977821    -0.87700
O541        O  0.90745563  0.24303200  0.28943248    -0.86200
O542        O  0.90296109  0.24414551  0.20134820    -0.85800
Zr543      Zr  0.88342190  0.24262140  0.24649596     2.84300
O544        O  0.85906335  0.21400973  0.27491242    -1.07800
O545        O  0.85395800  0.26866942  0.22073243    -1.08500
C546        C  0.89360007  0.24238738  0.17716032     1.06900
C547        C  0.90081901  0.24317007  0.31456342     1.06900
C548        C  0.89554785  0.31139285  0.24826262     1.09900
C549        C  0.90042527  0.17497095  0.24410738     1.07600
H550        H  0.86783690  0.27997599  0.28621612     0.33200
O551        O  0.85669237  0.26840289  0.27532538    -1.28700
H552        H  0.86690206  0.20342731  0.20868439     0.32900
O553        O  0.85607727  0.21423502  0.22061463    -1.30400
O554        O  0.78955082  0.23746330  0.32761276    -0.86200
O555        O  0.78199920  0.23868708  0.17493509    -0.87700
O556        O  0.82633520  0.31575365  0.29378199    -0.86200
O557        O  0.83486574  0.16308437  0.29195151    -0.86300
O558        O  0.82711716  0.16450659  0.20562363    -0.86000
O559        O  0.82642022  0.31661342  0.20552174    -0.85800
O560        O  0.75198258  0.28149476  0.25410928    -0.86200
O561        O  0.75444031  0.19368712  0.25302076    -0.85600
O562        O  0.78317971  0.31543593  0.25216834    -0.86700
O563        O  0.78845318  0.16260768  0.25203149    -0.85900
O564        O  0.83006059  0.28317611  0.32611473    -0.86300
O565        O  0.82464725  0.28382602  0.17325060    -0.86000
O566        O  0.82475545  0.19670775  0.17278896    -0.85600
O567        O  0.83549952  0.19557402  0.32464509    -0.86000
O568        O  0.75517141  0.23730642  0.29689882    -0.86300
O569        O  0.75098074  0.23776057  0.20888041    -0.87700
Zr570      Zr  0.83203654  0.23980304  0.30339699     2.83100
Zr571      Zr  0.82630571  0.24028624  0.19530316     2.83500
Zr572      Zr  0.82735202  0.29454890  0.24954275     2.84100
Zr573      Zr  0.83134316  0.18619181  0.24904999     2.83400
Zr574      Zr  0.77496617  0.23827454  0.25191932     2.84200
O575        O  0.80159995  0.21206830  0.22347483    -1.08300
O576        O  0.80267783  0.26610236  0.27773149    -1.07800
C577        C  0.76442003  0.23687506  0.32118985     1.06900
C578        C  0.75765738  0.23795310  0.18374168     1.09500
C579        C  0.82766324  0.30789504  0.31851631     1.07100
C580        C  0.83597645  0.17082971  0.31666507     1.07400
C581        C  0.82514317  0.17203745  0.18090517     1.07000
C582        C  0.82543947  0.30862826  0.18079052     1.06600
C583        C  0.75887702  0.30654009  0.25381650     1.07000
C584        C  0.76339336  0.16928889  0.25321052     1.06500
H585        H  0.78754126  0.27761381  0.21293981     0.33200
O586        O  0.79958027  0.26671124  0.22357613    -1.29400
H587        H  0.79433225  0.20024119  0.28932199     0.33200
O588        O  0.80442855  0.21195862  0.27760939    -1.30700
C589        C  0.55524231  0.43516088  0.74973204     0.80500
N590        N  0.55554171  0.46245855  0.74971756    -0.77800
C591        C  0.57916948  0.47601485  0.75157915     0.83000
N592        N  0.60259340  0.46222844  0.75325008    -0.77700
C593        C  0.60249505  0.43499812  0.75335834     0.83100
N594        N  0.57882493  0.42156017  0.75167355    -0.79400
C595        C  0.55585369  0.24103440  0.94284793     0.80500
N596        N  0.55530149  0.23978824  0.97007348    -0.77800
C597        C  0.57857978  0.23836556  0.98425233     0.83000
N598        N  0.60243001  0.23810101  0.97112401    -0.77700
C599        C  0.60311453  0.23945142  0.94391685     0.83100
N600        N  0.57979081  0.24097987  0.93000798    -0.79400
C601        C  0.63342778  0.22029176  0.52603927     0.80500
N602        N  0.60623993  0.22044401  0.52418237    -0.77800
C603        C  0.59401238  0.22342244  0.49995328     0.83000
N604        N  0.60912931  0.22625898  0.47737642    -0.77700
C605        C  0.63636923  0.22637657  0.47907427     0.83100
N606        N  0.64824884  0.22347817  0.50341074    -0.79400
C607        C  0.82945435  0.04608487  0.47616949     0.80500
N608        N  0.83121559  0.05912224  0.50004110    -0.77800
C609        C  0.83128479  0.04536298  0.52360998     0.83000
N610        N  0.82921710  0.01817536  0.52308204    -0.77700
C611        C  0.82712921  0.00493082  0.49932243     0.83100
N612        N  0.82739840  0.01890722  0.47590288    -0.79400
O613        O  0.87438929  0.23794652  0.82486463    -0.86200
O614        O  0.87030772  0.24016339  0.67206468    -0.86300
O615        O  0.90441105  0.19572710  0.74592670    -0.88000
O616        O  0.90506835  0.28286310  0.74665186    -0.86800
O617        O  0.87290364  0.31546670  0.74924953    -0.86400
O618        O  0.87248390  0.16328865  0.75073273    -0.87700
O619        O  0.90340267  0.24149454  0.70384987    -0.86200
O620        O  0.90593565  0.23639992  0.79118731    -0.85800
Zr621      Zr  0.88266952  0.23958298  0.74820851     2.84300
O622        O  0.85516608  0.26717592  0.72197501    -1.07800
O623        O  0.85640313  0.21292471  0.77651509    -1.08500
C624        C  0.89872582  0.23610638  0.81609881     1.06900
C625        C  0.89525707  0.24106182  0.67919824     1.06900
C626        C  0.89710785  0.17089953  0.74797120     1.09900
C627        C  0.89760244  0.30765979  0.74766402     1.07600
H628        H  0.86601672  0.20135737  0.71034815     0.33200
O629        O  0.85506116  0.21245674  0.72188085    -1.28700
H630        H  0.86866110  0.27809143  0.78734509     0.32900
O631        O  0.85694195  0.26708524  0.77646556    -1.30400
O632        O  0.78298145  0.23722013  0.67517589    -0.86200
O633        O  0.78686685  0.24170939  0.82734304    -0.87700
O634        O  0.82892129  0.16415331  0.70584860    -0.86200
O635        O  0.82778119  0.31640320  0.70688537    -0.86300
O636        O  0.83035510  0.31688034  0.79330896    -0.86000
O637        O  0.82905085  0.16425829  0.79473460    -0.85800
O638        O  0.75280191  0.19562027  0.75193379    -0.86200
O639        O  0.75284887  0.28356986  0.75192750    -0.85600
O640        O  0.78547246  0.16314964  0.74980227    -0.86700
O641        O  0.78518075  0.31629308  0.75050232    -0.85900
O642        O  0.82682038  0.19689714  0.67327163    -0.86300
O643        O  0.82937614  0.19729924  0.82692631    -0.86000
O644        O  0.83160834  0.28434151  0.82595424    -0.85600
O645        O  0.82571034  0.28399941  0.67401263    -0.86000
O646        O  0.75125433  0.23843235  0.70841695    -0.86300
O647        O  0.75347010  0.24114648  0.79555143    -0.87700
Zr648      Zr  0.82727835  0.24004983  0.69577361     2.83100
Zr649      Zr  0.83005127  0.24037555  0.80417636     2.83500
Zr650      Zr  0.82884846  0.18555107  0.75024431     2.84100
Zr651      Zr  0.82884117  0.29403581  0.75011018     2.83400
Zr652      Zr  0.77460247  0.23973042  0.75143943     2.84200
O653        O  0.80205556  0.26731843  0.77790736    -1.08300
O654        O  0.80111855  0.21271497  0.72371101    -1.07800
C655        C  0.75843481  0.23697362  0.68353033     1.06900
C656        C  0.76195752  0.24192907  0.82006551     1.09500
C657        C  0.82793355  0.17224747  0.68114095     1.07100
C658        C  0.82627072  0.30860557  0.68225409     1.07400
C659        C  0.83143607  0.30908823  0.81801865     1.07000
C660        C  0.82906531  0.17249327  0.81942760     1.06600
C661        C  0.76075681  0.17088656  0.75082070     1.07000
C662        C  0.76048388  0.30837994  0.75123336     1.06500
H663        H  0.79122661  0.20165804  0.78956454     0.33200
O664        O  0.80226874  0.21272264  0.77806868    -1.29400
H665        H  0.78918735  0.27815757  0.71261554     0.33200
O666        O  0.80076351  0.26708821  0.72354273    -1.30700
O667        O  0.28607223  0.23972956  0.17388631    -0.86200
O668        O  0.28779383  0.23783676  0.32667510    -0.86300
O669        O  0.25468365  0.19428501  0.24880691    -0.88000
O670        O  0.25347470  0.28087357  0.24772585    -0.86800
O671        O  0.28559294  0.31363485  0.25079565    -0.86400
O672        O  0.28708973  0.16167826  0.24903297    -0.87700
O673        O  0.25484531  0.23949941  0.29439156    -0.86200
O674        O  0.25421365  0.23480125  0.20642546    -0.85800
Zr675      Zr  0.27614965  0.23802707  0.24994472     2.84300
O676        O  0.30299391  0.26496293  0.27731032    -1.07800
O677        O  0.30312818  0.21153541  0.22237463    -1.08500
C678        C  0.26159721  0.23648988  0.18164207     1.06900
C679        C  0.26317313  0.23901679  0.31902934     1.06900
C680        C  0.26239729  0.16952574  0.24880623     1.09900
C681        C  0.26097819  0.30560922  0.24894955     1.07600
H682        H  0.29162683  0.19918610  0.28752513     0.33200
O683        O  0.30300102  0.21041061  0.27652766    -1.28700
H684        H  0.29145207  0.27753659  0.21191897     0.32900
O685        O  0.30258016  0.26628886  0.22315379    -1.30400
O686        O  0.37366619  0.23625353  0.32548588    -0.86200
O687        O  0.37252231  0.23816555  0.17302666    -0.87700
O688        O  0.32931591  0.16083977  0.29200840    -0.86200
O689        O  0.32817994  0.31368724  0.29529039    -0.86300
O690        O  0.33303361  0.31563773  0.20743482    -0.86000
O691        O  0.32924027  0.16330382  0.20455011    -0.85800
O692        O  0.40683084  0.19588942  0.24878085    -0.86200
O693        O  0.40594026  0.28272213  0.24984738    -0.85600
O694        O  0.37462875  0.16322950  0.25100931    -0.86700
O695        O  0.37348740  0.31486621  0.25397273    -0.85900
O696        O  0.32729682  0.19322430  0.32453416    -0.86300
O697        O  0.32836059  0.19668588  0.17259720    -0.86000
O698        O  0.33132961  0.28346533  0.17432784    -0.85600
O699        O  0.32708673  0.28013323  0.32667909    -0.86000
O700        O  0.40598199  0.23697552  0.29252363    -0.86300
O701        O  0.40532184  0.24011622  0.20519019    -0.87700
Zr702      Zr  0.33024833  0.23731067  0.30351717     2.83100
Zr703      Zr  0.32961665  0.23956312  0.19579024     2.83500
Zr704      Zr  0.33044414  0.18413495  0.24893340     2.84100
Zr705      Zr  0.32989199  0.29283179  0.25087062     2.83400
Zr706      Zr  0.38393641  0.23900382  0.24912081     2.84200
O707        O  0.35685054  0.26665082  0.22273716    -1.08300
O708        O  0.35765448  0.21093153  0.27616679    -1.07800
C709        C  0.39815498  0.23599411  0.31717452     1.06900
C710        C  0.39725899  0.23891952  0.18055802     1.09500
C711        C  0.32743191  0.16847079  0.31673258     1.07100
C712        C  0.32673745  0.30511354  0.31978759     1.07400
C713        C  0.33309096  0.30797426  0.18261453     1.07000
C714        C  0.32843112  0.17188734  0.18006296     1.06600
C715        C  0.39933252  0.17112457  0.25030735     1.07000
C716        C  0.39826936  0.30737352  0.25256990     1.06500
H717        H  0.36830960  0.20066716  0.21045408     0.33200
O718        O  0.35716160  0.21172039  0.22183868    -1.29400
H719        H  0.36836290  0.27625662  0.28904496     0.33200
O720        O  0.35727471  0.26539386  0.27740145    -1.30700
C721        C  0.80803368  0.12818939  0.62209380    -0.05200
C722        C  0.83117409  0.11204752  0.61922951     0.09000
C723        C  0.85324523  0.11590146  0.63661116    -0.02500
C724        C  0.85233918  0.13607032  0.65642655    -0.00800
C725        C  0.82889388  0.15157323  0.65987213    -0.04400
C726        C  0.80698184  0.14806286  0.64221662     0.02600
C727        C  0.83332624  0.09310986  0.59602460     0.09400
C728        C  0.87723649  0.09968135  0.63349848     0.35300
C729        C  0.78350427  0.16516137  0.64439307     0.38800
C730        C  0.84935187  0.10012267  0.57378218    -0.04800
C731        C  0.85013281  0.08343015  0.55099956     0.02400
C732        C  0.83363915  0.06027181  0.54953462    -0.04400
C733        C  0.81870268  0.05247807  0.57253655    -0.00600
C734        C  0.81875616  0.06881265  0.59574337    -0.03200
C735        C  0.86471948  0.12491407  0.57415409     0.36100
C736        C  0.80276654  0.02807390  0.57241683     0.39700
C737        C  0.86880656  0.08971215  0.52952494     0.38800
C738        C  0.80352735  0.06087988  0.61928712     0.35800
C739        C  0.78553945  0.12474289  0.60388878     0.36400
C740        C  0.87645251  0.14281301  0.67129343     0.39700
N741        N  0.88386910  0.09462964  0.51253460    -0.38400
N742        N  0.87699889  0.14464736  0.57460224    -0.40000
N743        N  0.79019945  0.00850965  0.57252754    -0.37700
N744        N  0.79139735  0.05458649  0.63808148    -0.40100
N745        N  0.89644442  0.08686765  0.63090668    -0.39900
N746        N  0.89593314  0.14875646  0.68245910    -0.37500
N747        N  0.76468786  0.17869366  0.64588234    -0.38600
N748        N  0.76758530  0.12187096  0.58941733    -0.40200
C749        C  0.69518302  0.21283869  0.64719471    -0.05200
C750        C  0.69794215  0.22556999  0.62212013     0.09000
C751        C  0.71960669  0.24319148  0.61757479    -0.02500
C752        C  0.73929645  0.24705745  0.63751226    -0.00800
C753        C  0.73685333  0.23417906  0.66283983    -0.04400
C754        C  0.71425214  0.21740950  0.66765339     0.02600
C755        C  0.67871879  0.21996116  0.59977974     0.09400
C756        C  0.72161478  0.25728107  0.59209476     0.35300
C757        C  0.71090946  0.20365475  0.69311180     0.38800
C758        C  0.65364523  0.23301641  0.59889555    -0.04800
C759        C  0.63780296  0.23180634  0.57541369     0.02400
C760        C  0.64725022  0.21771402  0.55250952    -0.04400
C761        C  0.67137576  0.20269585  0.55448888    -0.00600
C762        C  0.68692620  0.20376809  0.57808308    -0.03200
C763        C  0.64476888  0.24867458  0.62181097     0.36100
C764        C  0.68052051  0.18624466  0.53221609     0.39700
C765        C  0.61262279  0.24642460  0.57459120     0.38800
C766        C  0.71195800  0.18892392  0.57981448     0.35800
C767        C  0.67298933  0.19450114  0.65170117     0.36400
C768        C  0.76211724  0.26412310  0.63145940     0.39700
N769        N  0.59250543  0.25805193  0.57413262    -0.38400
N770        N  0.63776462  0.26104580  0.64019710    -0.40000
N771        N  0.68796438  0.17324738  0.51443920    -0.37700
N772        N  0.73194997  0.17717301  0.58127130    -0.40100
N773        N  0.72300432  0.26845693  0.57175610    -0.39900
N774        N  0.78038231  0.27741485  0.62602994    -0.37500
N775        N  0.70762441  0.19260492  0.71328695    -0.38600
N776        N  0.65531569  0.17987163  0.65537608    -0.40200
C777        C  0.67430310  0.25716690  0.92246514    -0.05200
C778        C  0.67676450  0.24177431  0.89884714     0.09000
C779        C  0.65571855  0.22471704  0.89072899    -0.02500
C780        C  0.63173665  0.22381976  0.90552262    -0.00800
C781        C  0.62899601  0.23935146  0.92921036    -0.04400
C782        C  0.65066000  0.25560582  0.93794552     0.02600
C783        C  0.70076733  0.24434022  0.88123971     0.09400
C784        C  0.65871363  0.20830802  0.86679269     0.35300
C785        C  0.64833958  0.27161947  0.96220351     0.38800
C786        C  0.72173367  0.22545556  0.88306739    -0.04800
C787        C  0.74199876  0.22485243  0.86331936     0.02400
C788        C  0.74134236  0.24322973  0.84160313    -0.04400
C789        C  0.72064309  0.26271041  0.84042849    -0.00600
C790        C  0.70059638  0.26337320  0.86032971    -0.03200
C791        C  0.72178978  0.20604749  0.90482015     0.36100
C792        C  0.71969915  0.28217982  0.81881296     0.39700
C793        C  0.76245368  0.20416888  0.86456883     0.38800
C794        C  0.67925105  0.28320705  0.85900435     0.35800
C795        C  0.69578353  0.27517182  0.93036556     0.36400
C796        C  0.60997013  0.20681606  0.89615186     0.39700
N797        N  0.77856576  0.18747192  0.86578256    -0.38400
N798        N  0.72169985  0.19060838  0.92220609    -0.40000
N799        N  0.71830833  0.29788054  0.80174867    -0.37700
N800        N  0.66221438  0.29899411  0.85812525    -0.40100
N801        N  0.66125976  0.19517123  0.84778727    -0.39900
N802        N  0.59254109  0.19350699  0.88844948    -0.37500
N803        N  0.64647232  0.28421940  0.98165495    -0.38600
N804        N  0.71276847  0.28972421  0.93667447    -0.40200
C805        C  0.65498502  0.38445497  0.77558255    -0.05200
C806        C  0.67434194  0.38722063  0.75512841     0.09000
C807        C  0.67133428  0.40734922  0.73542221    -0.02500
C808        C  0.64819478  0.42367127  0.73524024    -0.00800
C809        C  0.62804415  0.41988366  0.75488200    -0.04400
C810        C  0.63196727  0.40087652  0.77557107     0.02600
C811        C  0.69701505  0.36771083  0.75337844     0.09400
C812        C  0.69189858  0.41083149  0.71509814     0.35300
C813        C  0.61260466  0.39869532  0.79721453     0.38800
C814        C  0.69409268  0.34434144  0.73771829    -0.04800
C815        C  0.71488565  0.32519340  0.73665649     0.02400
C816        C  0.73902116  0.32935028  0.75126917    -0.04400
C817        C  0.74197060  0.35322485  0.76662814    -0.00600
C818        C  0.72094637  0.37220690  0.76771851    -0.03200
C819        C  0.66941250  0.33994989  0.72282228     0.36100
C820        C  0.76609929  0.35802540  0.78224262     0.39700
C821        C  0.71125290  0.30144107  0.72012170     0.38800
C822        C  0.72363839  0.39624541  0.78398572     0.35800
C823        C  0.65864490  0.36439719  0.79640093     0.36400
C824        C  0.64475489  0.44363514  0.71427709     0.39700
N825        N  0.70799696  0.28256635  0.70693981    -0.38400
N826        N  0.64972782  0.33652735  0.71095944    -0.40000
N827        N  0.78529480  0.36212120  0.79468536    -0.37700
N828        N  0.72565731  0.41540215  0.79700571    -0.40100
N829        N  0.70841176  0.41355154  0.69898736    -0.39900
N830        N  0.64210674  0.45958924  0.69756438    -0.37500
N831        N  0.59720804  0.39718978  0.81454291    -0.38600
N832        N  0.66165153  0.34840202  0.81300420    -0.40200
C833        C  0.69277882  0.24952803  0.43288427    -0.05200
C834        C  0.68897656  0.23267493  0.41044841     0.09000
C835        C  0.66720487  0.21456478  0.40997433    -0.02500
C836        C  0.64940049  0.21307943  0.43197365    -0.00800
C837        C  0.65341619  0.22961300  0.45473785    -0.04400
C838        C  0.67498368  0.24817042  0.45487000     0.02600
C839        C  0.70821432  0.23368209  0.38739148     0.09400
C840        C  0.66360156  0.19698337  0.38702025     0.35300
C841        C  0.67858627  0.26635386  0.47738244     0.38800
C842        C  0.73031421  0.21603935  0.38666311    -0.04800
C843        C  0.74837598  0.21674122  0.36486056     0.02400
C844        C  0.74468404  0.23544291  0.34368571    -0.04400
C845        C  0.72232466  0.25301999  0.34447100    -0.00600
C846        C  0.70420042  0.25208868  0.36624865    -0.03200
C847        C  0.73437559  0.19714137  0.40849515     0.36100
C848        C  0.71821747  0.27264999  0.32333152     0.39700
C849        C  0.77019152  0.19747989  0.36394696     0.38800
C850        C  0.68140303  0.27019856  0.36709180     0.35800
C851        C  0.71535081  0.26794039  0.43348401     0.36400
C852        C  0.62761269  0.19375887  0.43152497     0.39700
N853        N  0.78744416  0.18193368  0.36349917    -0.38400
N854        N  0.73746016  0.18216402  0.42601069    -0.40000
N855        N  0.71469013  0.28835493  0.30655529    -0.37700
N856        N  0.66319452  0.28461555  0.36787857    -0.40100
N857        N  0.66091083  0.18291875  0.36870827    -0.39900
N858        N  0.61019519  0.17837938  0.43115377    -0.37500
N859        N  0.68138319  0.28086681  0.49533141    -0.38600
N860        N  0.73342204  0.28254092  0.43397749    -0.40200
C861        C  0.85014184  0.07028365  0.40647510    -0.05200
C862        C  0.83516625  0.09422279  0.40438541     0.09000
C863        C  0.81733268  0.10154336  0.42509574    -0.02500
C864        C  0.81442351  0.08501221  0.44785315    -0.00800
C865        C  0.83034401  0.06164868  0.45070112    -0.04400
C866        C  0.84795423  0.05410893  0.42967323     0.02600
C867        C  0.83766416  0.11184890  0.38023558     0.09400
C868        C  0.80224596  0.12640228  0.42307717     0.35300
C869        C  0.86440565  0.03016668  0.43210002     0.38800
C870        C  0.81959710  0.10883727  0.35868701    -0.04800
C871        C  0.81926593  0.12779917  0.33763535     0.02400
C872        C  0.83754752  0.14962515  0.33771121    -0.04400
C873        C  0.85661257  0.15167179  0.35869843    -0.00600
C874        C  0.85648547  0.13297217  0.37998302    -0.03200
C875        C  0.80086395  0.08650424  0.35866025     0.36100
C876        C  0.87653688  0.17290649  0.35842879     0.39700
C877        C  0.79885781  0.12562113  0.31699122     0.38800
C878        C  0.87532786  0.13575240  0.40202480     0.35800
C879        C  0.86800355  0.06253563  0.38483249     0.36400
C880        C  0.79415164  0.09148456  0.46775174     0.39700
N881        N  0.78229055  0.12353849  0.30084642    -0.38400
N882        N  0.78606226  0.06858550  0.35873310    -0.40000
N883        N  0.89251043  0.18977420  0.35838984    -0.37700
N884        N  0.89031593  0.13795374  0.41964980    -0.40100
N885        N  0.79045219  0.14636765  0.42146401    -0.39900
N886        N  0.77777287  0.09647515  0.48345225    -0.37500
N887        N  0.87746634  0.01102068  0.43400497    -0.38600
N888        N  0.88221488  0.05636002  0.36752334    -0.40200
C889        C  0.48771740  0.21464297  0.08455696    -0.05200
C890        C  0.48050392  0.23767870  0.09943360     0.09000
C891        C  0.49576048  0.26143908  0.09721356    -0.02500
C892        C  0.51860874  0.26193414  0.08074484    -0.00800
C893        C  0.52701788  0.23836372  0.06754965    -0.04400
C894        C  0.51116590  0.21489640  0.06877907     0.02600
C895        C  0.45821505  0.23642298  0.11922857     0.09400
C896        C  0.48859941  0.28503308  0.11278056     0.35300
C897        C  0.51941421  0.19082866  0.05457032     0.38800
C898        C  0.46224468  0.22298237  0.14378490    -0.04800
C899        C  0.44198242  0.22297250  0.16338331     0.02400
C900        C  0.41807513  0.23786830  0.15922413    -0.04400
C901        C  0.41414687  0.25135569  0.13439760    -0.00600
C902        C  0.43388959  0.24993490  0.11422856    -0.03200
C903        C  0.48753681  0.20942642  0.14902540     0.36100
C904        C  0.39035179  0.26752580  0.12966973     0.39700
C905        C  0.44567852  0.20671534  0.18730033     0.38800
C906        C  0.42930668  0.26247545  0.08830097     0.35800
C907        C  0.47149621  0.19048897  0.08634487     0.36400
C908        C  0.53305234  0.28690559  0.07679371     0.39700
N909        N  0.44899858  0.19345060  0.20609379    -0.38400
N910        N  0.50770855  0.19865293  0.15314674    -0.40000
N911        N  0.37145722  0.28045176  0.12566402    -0.37700
N912        N  0.42559523  0.27235459  0.06758402    -0.40100
N913        N  0.48294530  0.30379315  0.12529335    -0.39900
N914        N  0.54408003  0.30705563  0.07329477    -0.37500
N915        N  0.52592598  0.17158046  0.04327047    -0.38600
N916        N  0.45854187  0.17125449  0.08798271    -0.40200
C917        C  0.69128486  0.22171809  0.14868113    -0.05200
C918        C  0.69362020  0.23667783  0.12475659     0.09000
C919        C  0.71714579  0.25152390  0.11975102    -0.02500
C920        C  0.73766390  0.25269997  0.13926134    -0.00800
C921        C  0.73567952  0.23732815  0.16324754    -0.04400
C922        C  0.71261740  0.22113568  0.16731761     0.02600
C923        C  0.67057726  0.23807922  0.10553531     0.09400
C924        C  0.72001990  0.26580455  0.09448694     0.35300
C925        C  0.71109129  0.20295001  0.19004787     0.38800
C926        C  0.65344652  0.26064097  0.10586341    -0.04800
C927        C  0.63087650  0.26159010  0.08882658     0.02400
C928        C  0.62524837  0.23992559  0.07137575    -0.04400
C929        C  0.64295143  0.21776731  0.07035939    -0.00600
C930        C  0.66558840  0.21686868  0.08739310    -0.03200
C931        C  0.65905381  0.28284001  0.12393066     0.36100
C932        C  0.63735345  0.19546877  0.05244411     0.39700
C933        C  0.61392861  0.28525333  0.08888846     0.38800
C934        C  0.68371422  0.19409515  0.08639151     0.35800
C935        C  0.66655791  0.20743297  0.15440714     0.36400
C936        C  0.76012003  0.27073841  0.13487929     0.39700
N937        N  0.60093431  0.30451283  0.08918724    -0.38400
N938        N  0.66371134  0.30052834  0.13828414    -0.40000
N939        N  0.63276897  0.17774489  0.03811112    -0.37700
N940        N  0.69819676  0.17593030  0.08556542    -0.40100
N941        N  0.72224332  0.27699574  0.07423075    -0.39900
N942        N  0.77778971  0.28535584  0.13113148    -0.37500
N943        N  0.70983198  0.18817633  0.20795758    -0.38600
N944        N  0.64671395  0.19629073  0.15906416    -0.40200
C945        C  0.50067481  0.38852608  0.23182250    -0.05200
C946        C  0.48290132  0.38820331  0.25385471     0.09000
C947        C  0.48730585  0.40540999  0.27593914    -0.02500
C948        C  0.51019822  0.42200109  0.27656632    -0.00800
C949        C  0.52848301  0.42152931  0.25496607    -0.04400
C950        C  0.52350723  0.40511185  0.23242264     0.02600
C951        C  0.46080467  0.36806333  0.25470301     0.09400
C952        C  0.46875239  0.40525746  0.29836898     0.35300
C953        C  0.54233012  0.40480147  0.21017591     0.38800
C954        C  0.46612865  0.34192304  0.26404161    -0.04800
C955        C  0.44572846  0.32231181  0.26400762     0.02400
C956        C  0.41960762  0.32866108  0.25420123    -0.04400
C957        C  0.41428219  0.35555836  0.24584504    -0.00600
C958        C  0.43487566  0.37499724  0.24606191    -0.03200
C959        C  0.49279539  0.33535823  0.27389929     0.36100
C960        C  0.38787844  0.36363718  0.23651283     0.39700
C961        C  0.45185696  0.29598173  0.27501790     0.38800
C962        C  0.42950439  0.40229281  0.23727333     0.35800
C963        C  0.49584323  0.37118062  0.20891117     0.36400
C964        C  0.51588938  0.43815042  0.30014667     0.39700
N965        N  0.45709544  0.27510272  0.28383942    -0.38400
N966        N  0.51407769  0.33033207  0.28175860    -0.40000
N967        N  0.36686740  0.37029540  0.22913843    -0.37700
N968        N  0.42525879  0.42409254  0.23037325    -0.40100
N969        N  0.45387679  0.40510864  0.31620969    -0.39900
N970        N  0.52057687  0.45086728  0.31903451    -0.37500
N971        N  0.55749798  0.40457566  0.19258166    -0.38600
N972        N  0.49203216  0.35733667  0.19062964    -0.40200
C973        C  0.71634821  0.36618402  0.27611778    -0.05200
C974        C  0.69354020  0.36297334  0.25974375     0.09000
C975        C  0.69249052  0.34192415  0.24085467    -0.02500
C976        C  0.71434752  0.32419419  0.23817115    -0.00800
C977        C  0.73687662  0.32661207  0.25531784    -0.04400
C978        C  0.73778637  0.34780602  0.27427975     0.02600
C979        C  0.67073643  0.38221188  0.26190003     0.09400
C980        C  0.66885283  0.33857735  0.22414844     0.35300
C981        C  0.76021075  0.35041059  0.29261145     0.38800
C982        C  0.67103583  0.40614920  0.24682210    -0.04800
C983        C  0.64878600  0.42360283  0.24737507     0.02400
C984        C  0.62603859  0.41718669  0.26322248    -0.04400
C985        C  0.62643192  0.39363995  0.27931548    -0.00600
C986        C  0.64867601  0.37618084  0.27849243    -0.03200
C987        C  0.69412753  0.41242999  0.23021679     0.36100
C988        C  0.60411173  0.38732071  0.29696530     0.39700
C989        C  0.64901502  0.44738772  0.23050656     0.38800
C990        C  0.64881362  0.35175800  0.29444933     0.35800
C991        C  0.71764531  0.38850961  0.29483055     0.36400
C992        C  0.71406077  0.30427130  0.21689975     0.39700
N993        N  0.64927384  0.46636474  0.21706221    -0.38400
N994        N  0.71259994  0.41736341  0.21703215    -0.40000
N995        N  0.58630531  0.38218431  0.31097816    -0.37700
N996        N  0.64895573  0.33226046  0.30712853    -0.40100
N997        N  0.64993204  0.33580901  0.21094617    -0.39900
N998        N  0.71376131  0.28866531  0.19968058    -0.37500
N999        N  0.77779105  0.35299275  0.30755402    -0.38600
N1000       N  0.71862267  0.40647796  0.30955173    -0.40200
C1001       C  0.97663800  0.40939175  0.77603182    -0.05200
C1002       C  0.97812892  0.39233086  0.75345281     0.09000
C1003       C  0.99697356  0.39757749  0.73302755    -0.02500
C1004       C  0.01271011  0.42109752  0.73401345    -0.00800
C1005       C  0.01016750  0.43900601  0.75590655    -0.04400
C1006       C  0.99294119  0.43248127  0.77744049     0.02600
C1007       C  0.95840608  0.36999415  0.75028194     0.09400
C1008       C  0.99978781  0.37887891  0.71086336     0.35300
C1009       C  0.99250982  0.44920568  0.80130032     0.38800
C1010       C  0.93327240  0.37525804  0.73850922    -0.04800
C1011       C  0.91363828  0.35493719  0.73709401     0.02400
C1012       C  0.91907319  0.32881942  0.74740985    -0.04400
C1013       C  0.94513131  0.32339231  0.75796609    -0.00600
C1014       C  0.96461611  0.34393056  0.75921907    -0.03200
C1015       C  0.92781021  0.40171535  0.72745954     0.36100
C1016       C  0.95214395  0.29700913  0.76829250     0.39700
C1017       C  0.88800481  0.36132591  0.72476381     0.38800
C1018       C  0.99128271  0.33827246  0.76951198     0.35800
C1019       C  0.95803372  0.40332426  0.79760047     0.36400
C1020       C  0.03055812  0.42742388  0.71190352     0.39700
N1021       N  0.86758591  0.36680460  0.71511213    -0.38400
N1022       N  0.92359513  0.42274469  0.71846654    -0.40000
N1023       N  0.95795520  0.27598073  0.77637489    -0.37700
N1024       N  0.01263421  0.33371604  0.77745927    -0.40100
N1025       N  0.00209503  0.36371284  0.69339798    -0.39900
N1026       N  0.04472840  0.43246433  0.69419777    -0.37500
N1027       N  0.99247312  0.46242037  0.82042550    -0.38600
N1028       N  0.94317969  0.39847029  0.81479092    -0.40200
C1029       C  0.99790911  0.58321970  0.77253870    -0.05200
C1030       C  0.97436666  0.58469841  0.75685488     0.09000
C1031       C  0.96769378  0.56322971  0.73963635    -0.02500
C1032       C  0.98409093  0.54012832  0.73848598    -0.00800
C1033       C  0.00713927  0.53795365  0.75506314    -0.04400
C1034       C  0.01425617  0.55996625  0.77169637     0.02600
C1035       C  0.95657385  0.60900898  0.75786810     0.09400
C1036       C  0.94390576  0.56511399  0.72289620     0.35300
C1037       C  0.03814622  0.55868067  0.78830430     0.38800
C1038       C  0.95973381  0.62978469  0.73884871    -0.04800
C1039       C  0.94092176  0.65101435  0.73749419     0.02400
C1040       C  0.91896578  0.65182154  0.75553989    -0.04400
C1041       C  0.91707969  0.63199709  0.77585712    -0.00600
C1042       C  0.93545719  0.61041853  0.77665628    -0.03200
C1043       C  0.98223149  0.62896951  0.72039942     0.36100
C1044       C  0.89703125  0.63441029  0.79681664     0.39700
C1045       C  0.94393209  0.67153312  0.71703215     0.38800
C1046       C  0.93237332  0.58937460  0.79658001     0.35800
C1047       C  0.00530856  0.60575279  0.78945815     0.36400
C1048       C  0.97784317  0.51920801  0.71916878     0.39700
N1049       N  0.94664175  0.68782897  0.70067250    -0.38400
N1050       N  0.00029787  0.62822594  0.70582367    -0.40000
N1051       N  0.88142957  0.63632641  0.81390221    -0.37700
N1052       N  0.92975526  0.57259708  0.81246350    -0.40100
N1053       N  0.92493090  0.56681216  0.70958767    -0.39900
N1054       N  0.97293126  0.50267204  0.70357952    -0.37500
N1055       N  0.05731442  0.55775104  0.80141510    -0.38600
N1056       N  0.01124049  0.62379233  0.80287339    -0.40200
C1057       C  0.82660019  0.39560834  0.58083870    -0.05200
C1058       C  0.81854009  0.39741081  0.60789114     0.09000
C1059       C  0.80851399  0.42188931  0.61797716    -0.02500
C1060       C  0.80739343  0.44477601  0.60136180    -0.00800
C1061       C  0.81678176  0.44355223  0.57441242    -0.04400
C1062       C  0.82581217  0.41849205  0.56412069     0.02600
C1063       C  0.82068318  0.37348841  0.62591057     0.09400
C1064       C  0.79939130  0.42355781  0.64563558     0.35300
C1065       C  0.83502683  0.41597655  0.53659667     0.38800
C1066       C  0.84608872  0.36472155  0.63505753    -0.04800
C1067       C  0.84799869  0.34240212  0.65235475     0.02400
C1068       C  0.82447659  0.32993657  0.66189544    -0.04400
C1069       C  0.79909463  0.33896566  0.65320521    -0.00600
C1070       C  0.79726198  0.35995117  0.63434982    -0.03200
C1071       C  0.87019206  0.37897012  0.62707610     0.36100
C1072       C  0.77486624  0.32723411  0.66431617     0.39700
C1073       C  0.87410130  0.33229425  0.66047356     0.38800
C1074       C  0.77133028  0.36756525  0.62349198     0.35800
C1075       C  0.83588873  0.37004713  0.57029538     0.36400
C1076       C  0.79597356  0.46935994  0.61219154     0.39700
N1077       N  0.89487145  0.32404938  0.66685762    -0.38400
N1078       N  0.88942654  0.39035747  0.62075021    -0.40000
N1079       N  0.75554620  0.31798249  0.67328972    -0.37700
N1080       N  0.75069761  0.37355709  0.61464440    -0.40100
N1081       N  0.79188950  0.42487291  0.66759199    -0.39900
N1082       N  0.78698272  0.48894882  0.62092602    -0.37500
N1083       N  0.84223889  0.41367803  0.51462240    -0.38600
N1084       N  0.84336750  0.34963116  0.56206049    -0.40200
C1085       C  0.80680597  0.61701062  0.63596643    -0.05200
C1086       C  0.83131207  0.61102454  0.62282256     0.09000
C1087       C  0.85444620  0.62632389  0.62892615    -0.02500
C1088       C  0.85353768  0.64588850  0.64934725    -0.00800
C1089       C  0.82902837  0.65201608  0.66205998    -0.04400
C1090       C  0.80544453  0.63833876  0.65455420     0.02600
C1091       C  0.83281692  0.58792820  0.60346471     0.09400
C1092       C  0.87921463  0.62195094  0.61427646     0.35300
C1093       C  0.77971803  0.64676772  0.66531133     0.38800
C1094       C  0.81806608  0.58848711  0.57922712    -0.04800
C1095       C  0.81620117  0.56525104  0.56302196     0.02400
C1096       C  0.83001209  0.54144248  0.57039735    -0.04400
C1097       C  0.84673506  0.54183062  0.59349950    -0.00600
C1098       C  0.84773475  0.56473495  0.61013120    -0.03200
C1099       C  0.80419592  0.61290281  0.57133631     0.36100
C1100       C  0.86303941  0.51864365  0.60044397     0.39700
C1101       C  0.79867479  0.56562637  0.53975078     0.38800
C1102       C  0.86372448  0.56413497  0.63453098     0.35800
C1103       C  0.78310100  0.60087666  0.63082832     0.36400
C1104       C  0.87797845  0.65923195  0.65788332     0.39700
N1105       N  0.78458694  0.56602335  0.52126289    -0.38400
N1106       N  0.79304063  0.63236104  0.56519554    -0.40000
N1107       N  0.87598442  0.50018430  0.60614561    -0.37700
N1108       N  0.87673261  0.56377983  0.65379601    -0.40100
N1109       N  0.89905100  0.61855179  0.60268578    -0.39900
N1110       N  0.89744455  0.66971615  0.66499560    -0.37500
N1111       N  0.75914067  0.65374412  0.67353784    -0.38600
N1112       N  0.76422873  0.58796149  0.62670722    -0.40200
C1113       C  0.66995630  0.76243844  0.91478898    -0.05200
C1114       C  0.67582282  0.74005346  0.89844841     0.09000
C1115       C  0.66031673  0.71645331  0.90065121    -0.02500
C1116       C  0.63788873  0.71590595  0.91783206    -0.00800
C1117       C  0.63037408  0.73923639  0.93204785    -0.04400
C1118       C  0.64733056  0.76198445  0.93173049     0.02600
C1119       C  0.69788034  0.74163085  0.87831009     0.09400
C1120       C  0.66728727  0.69290986  0.88494457     0.35300
C1121       C  0.64150547  0.78491487  0.94874977     0.38800
C1122       C  0.72282962  0.72948413  0.88352934    -0.04800
C1123       C  0.74295997  0.72951558  0.86369618     0.02400
C1124       C  0.73931210  0.74408511  0.83947560    -0.04400
C1125       C  0.71456404  0.75750645  0.83503573    -0.00600
C1126       C  0.69351112  0.75494737  0.85373334    -0.03200
C1127       C  0.72760731  0.71657047  0.90922692     0.36100
C1128       C  0.71068067  0.77458931  0.81173299     0.39700
C1129       C  0.76652245  0.71296609  0.86776846     0.38800
C1130       C  0.66695475  0.76511105  0.84732526     0.35800
C1131       C  0.68705528  0.78601262  0.91382333     0.36400
C1132       C  0.62373376  0.69087535  0.92232696     0.39700
N1133       N  0.78497071  0.69931442  0.87125740    -0.38400
N1134       N  0.73152023  0.70639254  0.92975898    -0.40000
N1135       N  0.70722922  0.78851913  0.79343918    -0.37700
N1136       N  0.64561220  0.77269580  0.84214194    -0.40100
N1137       N  0.67298255  0.67417128  0.87241586    -0.39900
N1138       N  0.61312816  0.67059068  0.92637785    -0.37500
N1139       N  0.63706272  0.80303940  0.96261769    -0.38600
N1140       N  0.70075560  0.80477227  0.91299738    -0.40200
C1141       C  0.66817402  0.57662977  0.77727569    -0.05200
C1142       C  0.67510024  0.59379497  0.75581771     0.09000
C1143       C  0.65920600  0.59427958  0.73238068    -0.02500
C1144       C  0.63632994  0.57783092  0.73045241    -0.00800
C1145       C  0.62872764  0.56145005  0.75229824    -0.04400
C1146       C  0.64466118  0.56089904  0.77576750     0.02600
C1147       C  0.69824929  0.61267582  0.75814281     0.09400
C1148       C  0.66613190  0.61223812  0.71047936     0.35300
C1149       C  0.63601545  0.54541727  0.79888839     0.38800
C1150       C  0.72310500  0.60613229  0.74648250    -0.04800
C1151       C  0.74361100  0.62562182  0.74479347     0.02400
C1152       C  0.73976230  0.65168612  0.75592246    -0.04400
C1153       C  0.71524280  0.65729348  0.76942629    -0.00600
C1154       C  0.69445718  0.63809031  0.76990845    -0.03200
C1155       C  0.72735576  0.57926658  0.73596716     0.36100
C1156       C  0.71121941  0.68247940  0.78353615     0.39700
C1157       C  0.76820624  0.61869438  0.73082784     0.38800
C1158       C  0.66878849  0.64461717  0.78208213     0.35800
C1159       C  0.68513217  0.57540344  0.80091584     0.36400
C1160       C  0.62074967  0.57761382  0.70584282     0.39700
N1161       N  0.78780345  0.61281085  0.71982979    -0.38400
N1162       N  0.73071807  0.55775246  0.72781016    -0.40000
N1163       N  0.70753331  0.70237493  0.79497610    -0.37700
N1164       N  0.64827163  0.64976183  0.79167821    -0.40100
N1165       N  0.67167396  0.62668418  0.69312952    -0.39900
N1166       N  0.60853539  0.57740335  0.68607719    -0.37500
N1167       N  0.62888202  0.53330693  0.81740410    -0.38600
N1168       N  0.69878682  0.57427721  0.81969329    -0.40200
C1169       C  0.83377801  0.91156444  0.59422407    -0.05200
C1170       C  0.81808933  0.88808153  0.59558721     0.09000
C1171       C  0.80107915  0.88122295  0.57406929    -0.02500
C1172       C  0.80119363  0.89667486  0.55034183    -0.00800
C1173       C  0.81788789  0.91966545  0.54825031    -0.04400
C1174       C  0.83347100  0.92754735  0.57081914     0.02600
C1175       C  0.82133515  0.86900347  0.61849412     0.09400
C1176       C  0.78381909  0.85782054  0.57628768     0.35300
C1177       C  0.85025270  0.95136875  0.56979084     0.38800
C1178       C  0.80490115  0.87104422  0.64138658    -0.04800
C1179       C  0.80645454  0.85137261  0.66172630     0.02400
C1180       C  0.82563759  0.83040602  0.66003403    -0.04400
C1181       C  0.84265792  0.82898240  0.63733152    -0.00600
C1182       C  0.84007524  0.84788300  0.61642424    -0.03200
C1183       C  0.78616680  0.89323190  0.64377979     0.36100
C1184       C  0.86311802  0.80832430  0.63546455     0.39700
C1185       C  0.78701007  0.85182554  0.68334762     0.38800
C1186       C  0.85638113  0.84541263  0.59240727     0.35800
C1187       C  0.85094404  0.91874106  0.61665411     0.36400
C1188       C  0.78398943  0.88867225  0.52824460     0.39700
N1189       N  0.77110674  0.85229582  0.70024334    -0.38400
N1190       N  0.77138032  0.91105505  0.64578432    -0.40000
N1191       N  0.87953380  0.79196154  0.63378733    -0.37700
N1192       N  0.86913916  0.84348035  0.57309036    -0.40100
N1193       N  0.77002106  0.83921689  0.57824043    -0.39900
N1194       N  0.77026067  0.88182158  0.51079269    -0.37500
N1195       N  0.86350052  0.97046224  0.56906478    -0.38600
N1196       N  0.86470007  0.92445176  0.63449721    -0.40200
C1197       C  0.66109994  0.75976080  0.59692117    -0.05200
C1198       C  0.68074255  0.73934437  0.59727337     0.09000
C1199       C  0.68221644  0.72074741  0.57601486    -0.02500
C1200       C  0.66503760  0.72341781  0.55375634    -0.00800
C1201       C  0.64696252  0.74528224  0.55221142    -0.04400
C1202       C  0.64436105  0.76294403  0.57428053     0.02600
C1203       C  0.70138455  0.73893328  0.61893630     0.09400
C1204       C  0.70198552  0.69935917  0.57669428     0.35300
C1205       C  0.62563530  0.78521404  0.57321756     0.38800
C1206       C  0.69691551  0.72453919  0.64285103    -0.04800
C1207       C  0.71645169  0.72463288  0.66337639     0.02400
C1208       C  0.74025660  0.74001115  0.66041578    -0.04400
C1209       C  0.74423855  0.75492332  0.63643835    -0.00600
C1210       C  0.72527412  0.75363263  0.61552764    -0.03200
C1211       C  0.67219297  0.70952285  0.64616520     0.36100
C1212       C  0.76712360  0.77270851  0.63343911     0.39700
C1213       C  0.71215324  0.70827709  0.68711640     0.38800
C1214       C  0.73037853  0.76732467  0.59026834     0.35800
C1215       C  0.65877680  0.77789422  0.61962364     0.36400
C1216       C  0.66581218  0.70352354  0.53243620     0.39700
N1217       N  0.70855077  0.69515996  0.70597070    -0.38400
N1218       N  0.65240767  0.69762943  0.64875430    -0.40000
N1219       N  0.78509116  0.78716062  0.63063341    -0.37700
N1220       N  0.73453019  0.77795647  0.57001609    -0.40100
N1221       N  0.71778750  0.68231798  0.57710903    -0.39900
N1222       N  0.66616437  0.68773385  0.51537559    -0.37500
N1223       N  0.61084569  0.80313494  0.57258309    -0.38600
N1224       N  0.65701169  0.79213908  0.63791087    -0.40200
C1225       C  0.66672567  0.72891369  0.41490185    -0.05200
C1226       C  0.68627702  0.74898439  0.41063277     0.09000
C1227       C  0.68805039  0.77096353  0.42848093    -0.02500
C1228       C  0.67031955  0.77287428  0.45044387    -0.00800
C1229       C  0.65073802  0.75281878  0.45470486    -0.04400
C1230       C  0.64899138  0.73080028  0.43689747     0.02600
C1231       C  0.70583821  0.74630590  0.38798276     0.09400
C1232       C  0.70868581  0.79117035  0.42471995     0.35300
C1233       C  0.63023330  0.70916251  0.44222346     0.38800
C1234       C  0.69831750  0.75343651  0.36167829    -0.04800
C1235       C  0.71698603  0.75162214  0.34041070     0.02400
C1236       C  0.74335753  0.74158348  0.34507343    -0.04400
C1237       C  0.75034815  0.73355868  0.37169420    -0.00600
C1238       C  0.73177843  0.73628765  0.39291805    -0.03200
C1239       C  0.67112730  0.76257054  0.35653028     0.36100
C1240       C  0.77633063  0.72176220  0.37768330     0.39700
C1241       C  0.70883671  0.76097217  0.31402854     0.38800
C1242       C  0.73921614  0.72848642  0.42004177     0.35800
C1243       C  0.66572248  0.70573679  0.39726349     0.36400
C1244       C  0.67241027  0.79532180  0.46894733     0.39700
N1245       N  0.70202887  0.76840463  0.29307443    -0.38400
N1246       N  0.64935588  0.76956616  0.35243001    -0.40000
N1247       N  0.79691811  0.71227851  0.38283108    -0.37700
N1248       N  0.74504745  0.72238293  0.44170475    -0.40100
N1249       N  0.72527839  0.80720064  0.42194220    -0.39900
N1250       N  0.67399322  0.81308869  0.48386247    -0.37500
N1251       N  0.61550432  0.69171988  0.44656936    -0.38600
N1252       N  0.66511654  0.68725230  0.38317490    -0.40200
C1253       C  0.81637568  0.87398240  0.35532591    -0.05200
C1254       C  0.82900696  0.86861769  0.38011289     0.09000
C1255       C  0.84347263  0.84450301  0.38359901    -0.02500
C1256       C  0.84545875  0.82590568  0.36243813    -0.00800
C1257       C  0.83114940  0.83016049  0.33819820    -0.04400
C1258       C  0.81710806  0.85475251  0.33452361     0.02600
C1259       C  0.82711709  0.88816384  0.40282326     0.09400
C1260       C  0.85595018  0.83852615  0.40928070     0.35300
C1261       C  0.80315873  0.86053749  0.30957574     0.38800
C1262       C  0.80260083  0.89157247  0.41664539    -0.04800
C1263       C  0.80144789  0.90822335  0.43946340     0.02400
C1264       C  0.82504959  0.92015202  0.44952636    -0.04400
C1265       C  0.84939938  0.91743714  0.43534540    -0.00600
C1266       C  0.85026736  0.90202329  0.41162405    -0.03200
C1267       C  0.77872205  0.87739934  0.40783590     0.36100
C1268       C  0.87372203  0.92971222  0.44563835     0.39700
C1269       C  0.77586076  0.91372242  0.45220170     0.38800
C1270       C  0.87505935  0.89996960  0.39646978     0.35800
C1271       C  0.80228996  0.89921923  0.35137221     0.36400
C1272       C  0.86343913  0.80311552  0.36536596     0.39700
N1273       N  0.75541015  0.91851264  0.46211102    -0.38400
N1274       N  0.75967684  0.86612288  0.40076109    -0.40000
N1275       N  0.89319462  0.93933931  0.45388769    -0.37700
N1276       N  0.89477217  0.89822444  0.38430932    -0.40100
N1277       N  0.86585862  0.83375016  0.42975960    -0.39900
N1278       N  0.87806187  0.78520811  0.36780495    -0.37500
N1279       N  0.79219321  0.86551402  0.28968501    -0.38600
N1280       N  0.79089152  0.91924654  0.34825365    -0.40200
C1281       C  0.71913389  0.72412601  0.12043168    -0.05200
C1282       C  0.69484622  0.73734475  0.12620954     0.09000
C1283       C  0.69094372  0.74920654  0.15157953    -0.02500
C1284       C  0.71117278  0.74776110  0.17130717    -0.00800
C1285       C  0.73600506  0.73486364  0.16556900    -0.04400
C1286       C  0.73956297  0.72262176  0.14003314     0.02600
C1287       C  0.67275135  0.73837799  0.10595538     0.09400
C1288       C  0.66605329  0.76333680  0.15720466     0.35300
C1289       C  0.76370259  0.70743396  0.13405602     0.38800
C1290       C  0.65164698  0.71956936  0.10730456    -0.04800
C1291       C  0.62856455  0.72303906  0.09133125     0.02400
C1292       C  0.62700110  0.74472021  0.07303881    -0.04400
C1293       C  0.64889520  0.76259093  0.07052107    -0.00600
C1294       C  0.67168096  0.75948471  0.08708292    -0.03200
C1295       C  0.65387253  0.69654831  0.12505264     0.36100
C1296       C  0.64743976  0.78494863  0.05189182     0.39700
C1297       C  0.60637699  0.70431086  0.09380963     0.38800
C1298       C  0.69396116  0.77812574  0.08504699     0.35800
C1299       C  0.72307808  0.71218151  0.09416009     0.36400
C1300       C  0.70598470  0.75972835  0.19738938     0.39700
N1301       N  0.58857372  0.68952269  0.09589425    -0.38400
N1302       N  0.65585506  0.67801707  0.13896290    -0.40000
N1303       N  0.64627021  0.80283895  0.03708129    -0.37700
N1304       N  0.71189900  0.79281009  0.08345460    -0.40100
N1305       N  0.64626699  0.77469453  0.16160305    -0.39900
N1306       N  0.70136477  0.76899484  0.21820181    -0.37500
N1307       N  0.78285627  0.69522588  0.12915253    -0.38600
N1308       N  0.72625801  0.70279819  0.07313766    -0.40200
C1309       C  0.66946449  0.57294935  0.28606770    -0.05200
C1310       C  0.68126858  0.58632813  0.26407578     0.09000
C1311       C  0.66947838  0.58457548  0.23835757    -0.02500
C1312       C  0.64551003  0.57010651  0.23475645    -0.00800
C1313       C  0.63298523  0.55781571  0.25696807    -0.04400
C1314       C  0.64524477  0.55877711  0.28252850     0.02600
C1315       C  0.70418994  0.60507036  0.26812922     0.09400
C1316       C  0.68150383  0.59870713  0.21585444     0.35300
C1317       C  0.63231447  0.54613855  0.30537004     0.38800
C1318       C  0.73007271  0.59812198  0.25929484    -0.04800
C1319       C  0.75029974  0.61786952  0.25777567     0.02400
C1320       C  0.74432684  0.64518125  0.26420829    -0.04400
C1321       C  0.71882313  0.65119872  0.27559685    -0.00600
C1322       C  0.69900063  0.63118453  0.27752923    -0.03200
C1323       C  0.73554337  0.57076142  0.25077224     0.36100
C1324       C  0.71247499  0.67781680  0.28565118     0.39700
C1325       C  0.77685365  0.60963820  0.24898196     0.38800
C1326       C  0.67269994  0.63767438  0.28832761     0.35800
C1327       C  0.68168176  0.57473617  0.31245777     0.36400
C1328       C  0.63391004  0.56770223  0.20815245     0.39700
N1329       N  0.79801269  0.60292490  0.24210599    -0.38400
N1330       N  0.74001148  0.54902281  0.24382742    -0.40000
N1331       N  0.70689456  0.69891190  0.29365643    -0.37700
N1332       N  0.65176645  0.64267379  0.29705563    -0.40100
N1333       N  0.69125633  0.61015221  0.19813144    -0.39900
N1334       N  0.62495517  0.56572862  0.18679486    -0.37500
N1335       N  0.62186274  0.53609219  0.32353217    -0.38600
N1336       N  0.69133063  0.57629315  0.33354997    -0.40200
C1337       C  0.96629796  0.63568694  0.26603453    -0.05200
C1338       C  0.96272772  0.61122620  0.25226458     0.09000
C1339       C  0.93873127  0.60649821  0.23800790    -0.02500
C1340       C  0.91829475  0.62610067  0.23751466    -0.00800
C1341       C  0.92153916  0.65067069  0.25165501    -0.04400
C1342       C  0.94571073  0.65516637  0.26610352     0.02600
C1343       C  0.98343447  0.58953881  0.25391746     0.09400
C1344       C  0.93499106  0.58113634  0.22405833     0.35300
C1345       C  0.94920164  0.67920710  0.28218614     0.38800
C1346       C  0.98578870  0.57405864  0.27757177    -0.04800
C1347       C  0.00230306  0.55115576  0.27786249     0.02400
C1348       C  0.01544306  0.54290622  0.25425261    -0.04400
C1349       C  0.01533981  0.55972858  0.23145152    -0.00600
C1350       C  0.99937026  0.58315538  0.23132182    -0.03200
C1351       C  0.97071799  0.58124482  0.30142192     0.36100
C1352       C  0.03156174  0.55292400  0.20825236     0.39700
C1353       C  0.00682758  0.53670078  0.30274262     0.38800
C1354       C  0.99889680  0.60047166  0.20789249     0.35800
C1355       C  0.99117134  0.64063914  0.28039023     0.36400
C1356       C  0.89413645  0.62080015  0.22208134     0.39700
N1357       N  0.01108888  0.52563487  0.32273034    -0.38400
N1358       N  0.95883373  0.58695852  0.32054846    -0.40000
N1359       N  0.04474071  0.54769702  0.18984287    -0.37700
N1360       N  0.99852146  0.61437087  0.18925469    -0.40100
N1361       N  0.93221641  0.56090560  0.21293419    -0.39900
N1362       N  0.87490522  0.61626135  0.20984626    -0.37500
N1363       N  0.95235252  0.69821182  0.29518814    -0.38600
N1364       N  0.01100088  0.64449198  0.29187127    -0.40200
C1365       C  0.97280342  0.41701167  0.27599781    -0.05200
C1366       C  0.97279760  0.39949085  0.25373456     0.09000
C1367       C  0.99081384  0.40404289  0.23234567    -0.02500
C1368       C  0.00803874  0.42659160  0.23272098    -0.00800
C1369       C  0.00765833  0.44449744  0.25474314    -0.04400
C1370       C  0.99030389  0.43931289  0.27659030     0.02600
C1371       C  0.95315394  0.37671310  0.25232133     0.09400
C1372       C  0.99137719  0.38550937  0.20987517     0.35300
C1373       C  0.99080180  0.45653343  0.30004288     0.38800
C1374       C  0.92929406  0.37959940  0.23737500    -0.04800
C1375       C  0.91090519  0.35811755  0.23545392     0.02400
C1376       C  0.91585637  0.33357865  0.24910116    -0.04400
C1377       C  0.94006937  0.33073895  0.26395004    -0.00600
C1378       C  0.95858756  0.35220601  0.26542390    -0.03200
C1379       C  0.92372504  0.40483053  0.22386059     0.36100
C1380       C  0.94605877  0.30601391  0.27819737     0.39700
C1381       C  0.88744553  0.36111226  0.21842029     0.38800
C1382       C  0.98339748  0.34913403  0.28040083     0.35800
C1383       C  0.95456839  0.41219659  0.29819365     0.36400
C1384       C  0.02541588  0.43188595  0.20998084     0.39700
N1385       N  0.86884654  0.36362037  0.20471482    -0.38400
N1386       N  0.91932584  0.42496582  0.21308984    -0.40000
N1387       N  0.95133420  0.28639884  0.28952188    -0.37700
N1388       N  0.00320502  0.34673644  0.29231426    -0.40100
N1389       N  0.99169310  0.37055636  0.19207929    -0.39900
N1390       N  0.03915868  0.43612230  0.19173557    -0.37500
N1391       N  0.99105970  0.46986106  0.31906896    -0.38600
N1392       N  0.94004662  0.40836424  0.31591904    -0.40200
C1393       C  0.80077303  0.62715293  0.37476490    -0.05200
C1394       C  0.82247710  0.60975441  0.38011732     0.09000
C1395       C  0.84690374  0.61291870  0.36611871    -0.02500
C1396       C  0.84948258  0.63313975  0.34650354    -0.00800
C1397       C  0.82759572  0.65017575  0.34079746    -0.04400
C1398       C  0.80299256  0.64666709  0.35441099     0.02600
C1399       C  0.81852630  0.58581794  0.39772271     0.09400
C1400       C  0.86913350  0.59488088  0.37147531     0.35300
C1401       C  0.77930509  0.66126140  0.34571331     0.38800
C1402       C  0.80598111  0.56282799  0.38711731    -0.04800
C1403       C  0.80310701  0.53952740  0.40291309     0.02400
C1404       C  0.81435950  0.53832984  0.42915265    -0.04400
C1405       C  0.82701138  0.56179387  0.43966088    -0.00600
C1406       C  0.82836960  0.58554525  0.42418654    -0.03200
C1407       C  0.79662322  0.56300656  0.35946187     0.36100
C1408       C  0.83993607  0.56159338  0.46579530     0.39700
C1409       C  0.78804252  0.51720948  0.39180519     0.38800
C1410       C  0.84028402  0.60973566  0.43528558     0.35800
C1411       C  0.77606549  0.62464494  0.38995634     0.36400
C1412       C  0.87437762  0.63597314  0.33164239     0.39700
N1413       N  0.77591963  0.49981463  0.38229374    -0.38400
N1414       N  0.78940299  0.56322393  0.33736565    -0.40000
N1415       N  0.85039096  0.56161719  0.48656525    -0.37700
N1416       N  0.84966286  0.62907693  0.44414623    -0.40100
N1417       N  0.88684411  0.58047371  0.37582085    -0.39900
N1418       N  0.89414363  0.63823559  0.31965527    -0.37500
N1419       N  0.76023233  0.67235912  0.33841252    -0.38600
N1420       N  0.75644654  0.62283805  0.40225652    -0.40200
C1421       C  0.79400709  0.40835405  0.39926183    -0.05200
C1422       C  0.81764976  0.39271734  0.39890529     0.09000
C1423       C  0.83911974  0.39945954  0.41616294    -0.02500
C1424       C  0.83775836  0.42283101  0.43218518    -0.00800
C1425       C  0.81450566  0.43905893  0.43175846    -0.04400
C1426       C  0.79228706  0.43119519  0.41598251     0.02600
C1427       C  0.82078528  0.37045223  0.37885400     0.09400
C1428       C  0.86279076  0.38251477  0.41701601     0.35300
C1429       C  0.76749473  0.44639870  0.41727600     0.38800
C1430       C  0.83589794  0.37487040  0.35532262    -0.04800
C1431       C  0.83886808  0.35427038  0.33609167     0.02400
C1432       C  0.82610562  0.32905641  0.33984579    -0.04400
C1433       C  0.81103123  0.32469120  0.36366652    -0.00600
C1434       C  0.80851778  0.34527994  0.38305247    -0.03200
C1435       C  0.84804866  0.40097182  0.35069168     0.36100
C1436       C  0.79719031  0.29943154  0.36810497     0.39700
C1437       C  0.85557067  0.35912914  0.31270799     0.38800
C1438       C  0.79294078  0.34070838  0.40723794     0.35800
C1439       C  0.77171841  0.40128582  0.38189239     0.36400
C1440       C  0.86079928  0.43090636  0.44805321     0.39700
N1441       N  0.86889477  0.36323518  0.29412330    -0.38400
N1442       N  0.85765399  0.42182442  0.34703290    -0.40000
N1443       N  0.78610986  0.27938414  0.37205088    -0.37700
N1444       N  0.78040113  0.33700951  0.42644347    -0.40100
N1445       N  0.88159184  0.36887368  0.41773062    -0.39900
N1446       N  0.87923328  0.43746706  0.46058797    -0.37500
N1447       N  0.74761024  0.45836040  0.41848496    -0.38600
N1448       N  0.75396644  0.39558010  0.36802309    -0.40200
C1449       C  0.43859367  0.60878922  0.73927958    -0.05200
C1450       C  0.46339800  0.61493580  0.75129102     0.09000
C1451       C  0.46721299  0.63985184  0.76415095    -0.02500
C1452       C  0.44633145  0.65886355  0.76468407    -0.00800
C1453       C  0.42160919  0.65331865  0.75159094    -0.04400
C1454       C  0.41794667  0.62805390  0.73882668     0.02600
C1455       C  0.48589501  0.59536869  0.74982978     0.09400
C1456       C  0.49271872  0.64586931  0.77695849     0.35300
C1457       C  0.39341783  0.62186612  0.72434297     0.38800
C1458       C  0.50007834  0.59203763  0.72551752    -0.04800
C1459       C  0.52251429  0.57492386  0.72459691     0.02400
C1460       C  0.53089178  0.56141832  0.74802062    -0.04400
C1461       C  0.51602089  0.56378951  0.77198459    -0.00600
C1462       C  0.49345435  0.58071736  0.77287310    -0.03200
C1463       C  0.49178118  0.60652988  0.70160215     0.36100
C1464       C  0.52444929  0.54941779  0.79590868     0.39700
C1465       C  0.53673300  0.57092092  0.69950559     0.38800
C1466       C  0.47824213  0.58348289  0.79755896     0.35800
C1467       C  0.43438017  0.58246434  0.72743315     0.36400
C1468       C  0.45045585  0.68380699  0.77926849     0.39700
N1469       N  0.54775641  0.56761067  0.67932655    -0.38400
N1470       N  0.48501009  0.61799074  0.68253501    -0.40000
N1471       N  0.53124985  0.53790274  0.81492771    -0.37700
N1472       N  0.46610878  0.58584165  0.81723060    -0.40100
N1473       N  0.51297067  0.65058888  0.78732740    -0.39900
N1474       N  0.45410502  0.70361530  0.79089165    -0.37500
N1475       N  0.37396671  0.61663153  0.71275889    -0.38600
N1476       N  0.43107668  0.56142819  0.71809572    -0.40200
C1477       C  0.46035534  0.76175596  0.85859767    -0.05200
C1478       C  0.46031731  0.74214390  0.87908311     0.09000
C1479       C  0.43916622  0.72338304  0.88044068    -0.02500
C1480       C  0.41875055  0.72349237  0.86076213    -0.00800
C1481       C  0.41928416  0.74249720  0.83954640    -0.04400
C1482       C  0.43987506  0.76205498  0.83899536     0.02600
C1483       C  0.48371459  0.74017308  0.89792577     0.09400
C1484       C  0.43863350  0.70372873  0.90196640     0.35300
C1485       C  0.43957889  0.78307575  0.81879521     0.38800
C1486       C  0.48617084  0.75786695  0.91989055    -0.04800
C1487       C  0.50989420  0.75811644  0.93550535     0.02400
C1488       C  0.53121799  0.74008188  0.92963599    -0.04400
C1489       C  0.52785487  0.72137003  0.90840188    -0.00600
C1490       C  0.50432786  0.72155639  0.89262262    -0.03200
C1491       C  0.46422870  0.77593746  0.92625224     0.36100
C1492       C  0.54821984  0.70140051  0.90272646     0.39700
C1493       C  0.51263910  0.77792271  0.95671250     0.38800
C1494       C  0.50134302  0.70265550  0.87059529     0.35800
C1495       C  0.48177384  0.78146741  0.85757687     0.36400
C1496       C  0.39769058  0.70343106  0.86209416     0.39700
N1497       N  0.51476082  0.79378747  0.97357957    -0.38400
N1498       N  0.44663351  0.79022754  0.93137445    -0.40000
N1499       N  0.56398673  0.68516135  0.89754157    -0.37700
N1500       N  0.49882552  0.68755041  0.85310236    -0.40100
N1501       N  0.43813684  0.68802822  0.91911080    -0.39900
N1502       N  0.38098486  0.68735949  0.86354068    -0.37500
N1503       N  0.43931899  0.79996564  0.80281260    -0.38600
N1504       N  0.49889253  0.79716658  0.85694096    -0.40200
C1505       C  0.19753414  0.63223826  0.73821330    -0.05200
C1506       C  0.20340900  0.60739525  0.75036203     0.09000
C1507       C  0.22840881  0.60324628  0.76286518    -0.02500
C1508       C  0.24764310  0.62392059  0.76327289    -0.00800
C1509       C  0.24232908  0.64875933  0.75025583    -0.04400
C1510       C  0.21702002  0.65271900  0.73765897     0.02600
C1511       C  0.18346375  0.58517187  0.74952717     0.09400
C1512       C  0.23426278  0.57757218  0.77545164     0.35300
C1513       C  0.21082613  0.67750300  0.72356478     0.38800
C1514       C  0.18032469  0.57000796  0.72581006    -0.04800
C1515       C  0.16252071  0.54811160  0.72536942     0.02400
C1516       C  0.14900877  0.54042607  0.74901926    -0.04400
C1517       C  0.15176023  0.55584447  0.77262714    -0.00600
C1518       C  0.16867738  0.57849669  0.77274800    -0.03200
C1519       C  0.19634100  0.57620770  0.70227182     0.36100
C1520       C  0.13820407  0.54767458  0.79707644     0.39700
C1521       C  0.15775161  0.53376782  0.70047416     0.38800
C1522       C  0.17171109  0.59441241  0.79697270     0.35800
C1523       C  0.17123052  0.63673356  0.72646892     0.36400
C1524       C  0.27248856  0.61956810  0.77790589     0.39700
N1525       N  0.15365375  0.52275360  0.68042180    -0.38400
N1526       N  0.20931616  0.58101776  0.68360797    -0.40000
N1527       N  0.12751583  0.54106818  0.81662228    -0.37700
N1528       N  0.17433465  0.60712632  0.81625683    -0.40100
N1529       N  0.23883257  0.55713525  0.78556593    -0.39900
N1530       N  0.29221501  0.61583421  0.78961036    -0.37500
N1531       N  0.20540001  0.69714997  0.71236504    -0.38600
N1532       N  0.15021861  0.64035824  0.71723534    -0.40200
C1533       C  0.31693911  0.57774547  0.58743998    -0.05200
C1534       C  0.33944252  0.58427271  0.60342661     0.09000
C1535       C  0.36327385  0.56912115  0.60102910    -0.02500
C1536       C  0.36441736  0.54729545  0.58307224    -0.00800
C1537       C  0.34136036  0.53962601  0.56853665    -0.04400
C1538       C  0.31776584  0.55523671  0.57029094     0.02600
C1539       C  0.33766781  0.60654827  0.62347254     0.09400
C1540       C  0.38628893  0.57537145  0.61776156     0.35300
C1541       C  0.29398038  0.54749117  0.55535588     0.38800
C1542       C  0.32223542  0.60313865  0.64694846    -0.04800
C1543       C  0.31938779  0.62445114  0.66531670     0.02400
C1544       C  0.33377072  0.64872057  0.66152808    -0.04400
C1545       C  0.34982728  0.65179022  0.63820009    -0.00600
C1546       C  0.35111922  0.63104526  0.61893579    -0.03200
C1547       C  0.30949204  0.57747129  0.65235178     0.36100
C1548       C  0.36574555  0.67583147  0.63409264     0.39700
C1549       C  0.30042299  0.62172366  0.68725780     0.38800
C1550       C  0.36630349  0.63485185  0.59434892     0.35800
C1551       C  0.29268455  0.59378605  0.58928018     0.36400
C1552       C  0.38955655  0.53323643  0.57891820     0.39700
N1553       N  0.28495427  0.61944769  0.70443035    -0.38400
N1554       N  0.29947896  0.55694893  0.65671548    -0.40000
N1555       N  0.37865249  0.69478437  0.63034251    -0.37700
N1556       N  0.37837461  0.63782632  0.57471976    -0.40100
N1557       N  0.40461060  0.58027060  0.63119080    -0.39900
N1558       N  0.40983725  0.52252436  0.57526579    -0.37500
N1559       N  0.27500850  0.54126707  0.54346781    -0.38600
N1560       N  0.27334428  0.60656236  0.59092427    -0.40200
C1561       C  0.34746612  0.86656958  0.63553867    -0.05200
C1562       C  0.32691136  0.86563294  0.61611903     0.09000
C1563       C  0.30648126  0.84610323  0.61819756    -0.02500
C1564       C  0.30710872  0.82699815  0.63906635    -0.00800
C1565       C  0.32783312  0.82766673  0.65845466    -0.04400
C1566       C  0.34774018  0.84789846  0.65684559     0.02600
C1567       C  0.32688026  0.88488089  0.59307864     0.09400
C1568       C  0.28467296  0.84578455  0.59887036     0.35300
C1569       C  0.36912431  0.84918910  0.67645562     0.38800
C1570       C  0.34473017  0.88104901  0.57142686    -0.04800
C1571       C  0.34289241  0.89746867  0.54846106     0.02400
C1572       C  0.32326981  0.91799849  0.54706312    -0.04400
C1573       C  0.30602615  0.92239452  0.56919449    -0.00600
C1574       C  0.30803073  0.90602450  0.59221990    -0.03200
C1575       C  0.36486949  0.86000339  0.57267848     0.36100
C1576       C  0.28503557  0.94253912  0.56772197     0.39700
C1577       C  0.36121282  0.89307862  0.52621573     0.38800
C1578       C  0.29034615  0.91052595  0.61493043     0.35800
C1579       C  0.36847794  0.88666001  0.63336356     0.36400
C1580       C  0.28596718  0.80704335  0.64089075     0.39700
N1581       N  0.37565179  0.88949280  0.50836953    -0.38400
N1582       N  0.38113114  0.84342716  0.57375308    -0.40000
N1583       N  0.26812634  0.95843994  0.56656648    -0.37700
N1584       N  0.27624911  0.91396765  0.63307172    -0.40100
N1585       N  0.26712339  0.84579126  0.58363712    -0.39900
N1586       N  0.26910704  0.79111957  0.64220608    -0.37500
N1587       N  0.38645997  0.85093176  0.69177424    -0.38600
N1588       N  0.38529187  0.90257652  0.63137520    -0.40200
C1589       C  0.47058045  0.72154994  0.57186213    -0.05200
C1590       C  0.47425791  0.73846813  0.59422711     0.09000
C1591       C  0.49487518  0.75785652  0.59417021    -0.02500
C1592       C  0.51116754  0.76108593  0.57129798    -0.00800
C1593       C  0.50655230  0.74518205  0.54820859    -0.04400
C1594       C  0.48655566  0.72498450  0.54880453     0.02600
C1595       C  0.45432121  0.73821169  0.61645098     0.09400
C1596       C  0.49851135  0.77520313  0.61732893     0.35300
C1597       C  0.48240933  0.70761842  0.52576106     0.38800
C1598       C  0.45641695  0.71959042  0.63766777    -0.04800
C1599       C  0.43750842  0.71999312  0.65871902     0.02400
C1600       C  0.41657313  0.73920810  0.65863305    -0.04400
C1601       C  0.41439341  0.75754312  0.63702277    -0.00600
C1602       C  0.43307802  0.75686491  0.61593626    -0.03200
C1603       C  0.47770825  0.69972032  0.63748723     0.36100
C1604       C  0.39325973  0.77755102  0.63647216     0.39700
C1605       C  0.43891681  0.69980068  0.67968174     0.38800
C1606       C  0.43028046  0.77515949  0.59336518     0.35800
C1607       C  0.44981537  0.70110856  0.57241588     0.36400
C1608       C  0.53167641  0.78176330  0.57114770     0.39700
N1609       N  0.44012883  0.68349825  0.69620846    -0.38400
N1610       N  0.49458405  0.68374024  0.63727938    -0.40000
N1611       N  0.37654426  0.79363306  0.63545873    -0.37700
N1612       N  0.42803541  0.78961076  0.57528892    -0.40100
N1613       N  0.50122830  0.78908325  0.63577984    -0.39900
N1614       N  0.54801493  0.79828290  0.57113088    -0.37500
N1615       N  0.47904263  0.69382807  0.50734969    -0.38600
N1616       N  0.43329912  0.68477079  0.57302938    -0.40200
C1617       C  0.46191607  0.34565654  0.76111081    -0.05200
C1618       C  0.45943814  0.36886864  0.74508797     0.09000
C1619       C  0.43567135  0.37320638  0.73034694    -0.02500
C1620       C  0.41477228  0.35393892  0.73092390    -0.00800
C1621       C  0.41730035  0.33034862  0.74678296    -0.04400
C1622       C  0.44086902  0.32676444  0.76234913     0.02600
C1623       C  0.48237372  0.38831855  0.74364418     0.09400
C1624       C  0.43294487  0.39743445  0.71436385     0.35300
C1625       C  0.44337052  0.30406174  0.78045288     0.38800
C1626       C  0.50423328  0.38299096  0.72647900    -0.04800
C1627       C  0.52768044  0.39880560  0.72793869     0.02400
C1628       C  0.52952189  0.42011203  0.74670265    -0.04400
C1629       C  0.50689071  0.42647100  0.76271440    -0.00600
C1630       C  0.48339048  0.41063025  0.76109241    -0.03200
C1631       C  0.50260670  0.36098882  0.70743543     0.36100
C1632       C  0.50804432  0.44853664  0.78171946     0.39700
C1633       C  0.54973978  0.39339796  0.70969474     0.38800
C1634       C  0.46032429  0.41692139  0.77769956     0.35800
C1635       C  0.48639586  0.34114911  0.77628385     0.36400
C1636       C  0.39124635  0.35818232  0.71434895     0.39700
N1637       N  0.56737570  0.38919284  0.69517125    -0.38400
N1638       N  0.50126492  0.34348898  0.69218878    -0.40000
N1639       N  0.50888148  0.46615736  0.79687021    -0.37700
N1640       N  0.44178951  0.42195440  0.79076400    -0.40100
N1641       N  0.43080632  0.41686267  0.70175877    -0.39900
N1642       N  0.37268404  0.36207127  0.70094125    -0.37500
N1643       N  0.44566351  0.28613285  0.79506699    -0.38600
N1644       N  0.50599123  0.33753650  0.78823815    -0.40200
C1645       C  0.50567608  0.25808518  0.88794864    -0.05200
C1646       C  0.48565841  0.23863925  0.89252705     0.09000
C1647       C  0.48759926  0.22121236  0.91476341    -0.02500
C1648       C  0.50998847  0.22274012  0.93204779    -0.00800
C1649       C  0.53072684  0.24149030  0.92683210    -0.04400
C1650       C  0.52824496  0.25940899  0.90486156     0.02600
C1651       C  0.46275116  0.23660731  0.87338663     0.09400
C1652       C  0.46676192  0.20143345  0.91954528     0.35300
C1653       C  0.54881390  0.27936545  0.89954075     0.38800
C1654       C  0.46405256  0.21851795  0.85164457    -0.04800
C1655       C  0.44387358  0.21870700  0.83177216     0.02400
C1656       C  0.42236327  0.23719880  0.83346829    -0.04400
C1657       C  0.42136774  0.25546028  0.85526042    -0.00600
C1658       C  0.44128638  0.25487992  0.87530349    -0.03200
C1659       C  0.48661997  0.20020758  0.84943504     0.36100
C1660       C  0.40093422  0.27614915  0.85632221     0.39700
C1661       C  0.44542746  0.19981359  0.80969213     0.38800
C1662       C  0.44027743  0.27370881  0.89755246     0.35800
C1663       C  0.50301196  0.27662284  0.86556410     0.36400
C1664       C  0.51217058  0.20414771  0.95440792     0.39700
N1665       N  0.44716197  0.18470834  0.79212950    -0.38400
N1666       N  0.50469863  0.18570403  0.84772432    -0.40000
N1667       N  0.38507392  0.29306787  0.85749373    -0.37700
N1668       N  0.43961561  0.28872967  0.91528119    -0.40100
N1669       N  0.45021824  0.18557260  0.92339051    -0.39900
N1670       N  0.51395242  0.18940291  0.97230496    -0.37500
N1671       N  0.56521725  0.29520672  0.89506114    -0.38600
N1672       N  0.50057612  0.29138741  0.84776521    -0.40200
C1673       C  0.31711836  0.40200465  0.58749945    -0.05200
C1674       C  0.33743399  0.39767885  0.60668948     0.09000
C1675       C  0.36023828  0.41439658  0.60728328    -0.02500
C1676       C  0.36226617  0.43608691  0.58926526    -0.00800
C1677       C  0.34114486  0.44152701  0.57111041    -0.04400
C1678       C  0.31882403  0.42401128  0.56984866     0.02600
C1679       C  0.33490121  0.37517452  0.62613562     0.09400
C1680       C  0.38150238  0.40928091  0.62656556     0.35300
C1681       C  0.29707686  0.42909018  0.55114882     0.38800
C1682       C  0.34853550  0.35092030  0.62134374    -0.04800
C1683       C  0.34665162  0.32971415  0.63989829     0.02400
C1684       C  0.33012370  0.33226647  0.66294403    -0.04400
C1685       C  0.31564111  0.35647502  0.66708779    -0.00600
C1686       C  0.31860650  0.37805125  0.64905463    -0.03200
C1687       C  0.36457094  0.34785993  0.59718615     0.36100
C1688       C  0.29712583  0.35916931  0.68945538     0.39700
C1689       C  0.36258064  0.30579930  0.63530038     0.38800
C1690       C  0.30507893  0.40338022  0.65414457     0.35800
C1691       C  0.29438771  0.38381805  0.58614059     0.36400
C1692       C  0.38656365  0.45207974  0.58876703     0.39700
N1693       N  0.37551056  0.28703357  0.63083825    -0.38400
N1694       N  0.37728039  0.34539521  0.57789707    -0.40000
N1695       N  0.28230546  0.36141724  0.70720916    -0.37700
N1696       N  0.29439477  0.42361673  0.65825807    -0.40100
N1697       N  0.39843421  0.40509404  0.64192960    -0.39900
N1698       N  0.40630412  0.46430098  0.58838484    -0.37500
N1699       N  0.27970549  0.43308678  0.53624240    -0.38600
N1700       N  0.27635452  0.36919939  0.58513293    -0.40200
C1701       C  0.22503346  0.37213108  0.77283992    -0.05200
C1702       C  0.20290396  0.37190966  0.75521741     0.09000
C1703       C  0.19879315  0.34974406  0.73803023    -0.02500
C1704       C  0.21698004  0.32797501  0.73822109    -0.00800
C1705       C  0.23927025  0.32821220  0.75586752    -0.04400
C1706       C  0.24275115  0.35010822  0.77365325     0.02600
C1707       C  0.18491251  0.39589166  0.75357973     0.09400
C1708       C  0.17641395  0.34996787  0.71937440     0.35300
C1709       C  0.26431384  0.34986347  0.79324052     0.38800
C1710       C  0.18946218  0.41540588  0.73362496    -0.04800
C1711       C  0.17298375  0.43836318  0.73210825     0.02400
C1712       C  0.15197907  0.44226005  0.75089807    -0.04400
C1713       C  0.14777948  0.42280040  0.77121568    -0.00600
C1714       C  0.16407882  0.39959736  0.77238831    -0.03200
C1715       C  0.21164501  0.41207823  0.71500091     0.36100
C1716       C  0.12781711  0.42736650  0.79192026     0.39700
C1717       C  0.17783112  0.45772654  0.71092503     0.38800
C1718       C  0.15987755  0.37976610  0.79331646     0.35800
C1719       C  0.23030584  0.39565029  0.78923164     0.36400
C1720       C  0.21332984  0.30605699  0.71936066     0.39700
N1721       N  0.18238114  0.47272526  0.69377850    -0.38400
N1722       N  0.22941746  0.40941527  0.70028304    -0.40000
N1723       N  0.11203067  0.43114559  0.80854029    -0.37700
N1724       N  0.15661393  0.36396194  0.81005385    -0.40100
N1725       N  0.15863659  0.35037068  0.70441044    -0.39900
N1726       N  0.21020610  0.28868824  0.70422585    -0.37500
N1727       N  0.28132405  0.34976562  0.80906066    -0.38600
N1728       N  0.23475641  0.41452190  0.80205944    -0.40200
C1729       C  0.33329167  0.11009626  0.63896169    -0.05200
C1730       C  0.31654171  0.11425840  0.61658639     0.09000
C1731       C  0.30092000  0.13779267  0.61481713    -0.02500
C1732       C  0.30215524  0.15733369  0.63526835    -0.00800
C1733       C  0.31888858  0.15331057  0.65795436    -0.04400
C1734       C  0.33453504  0.12945770  0.65958961     0.02600
C1735       C  0.31669963  0.09479166  0.59378557     0.09400
C1736       C  0.28386965  0.14209226  0.59155710     0.35300
C1737       C  0.35282814  0.12504872  0.68188371     0.38800
C1738       C  0.29714476  0.07437477  0.59212850    -0.04800
C1739       C  0.29599719  0.05760155  0.56926963     0.02400
C1740       C  0.31439370  0.06133946  0.54796622    -0.04400
C1741       C  0.33463217  0.08115701  0.55028590    -0.00600
C1742       C  0.33587686  0.09765578  0.57321088    -0.03200
C1743       C  0.27812962  0.07090451  0.61391061     0.36100
C1744       C  0.35440389  0.08448767  0.52915012     0.39700
C1745       C  0.27514454  0.03740095  0.56721695     0.38800
C1746       C  0.35689695  0.11769475  0.57571917     0.35800
C1747       C  0.34978913  0.08609600  0.64034041     0.36400
C1748       C  0.28609695  0.18148610  0.63258619     0.39700
N1749       N  0.25838993  0.02137385  0.56568993    -0.38400
N1750       N  0.26308988  0.06821106  0.63141256    -0.40000
N1751       N  0.37009088  0.08716828  0.51222843    -0.37700
N1752       N  0.37373324  0.13356041  0.57793234    -0.40100
N1753       N  0.27027376  0.14555676  0.57302539    -0.39900
N1754       N  0.27332651  0.20068589  0.62970143    -0.37500
N1755       N  0.36740315  0.12131409  0.69960735    -0.38600
N1756       N  0.36302885  0.06701185  0.64134720    -0.40200
C1757       C  0.33292498  0.07059702  0.40734538    -0.05200
C1758       C  0.31257271  0.08937014  0.40154556     0.09000
C1759       C  0.29034479  0.09193831  0.41885870    -0.02500
C1760       C  0.28938092  0.07707132  0.44292817    -0.00800
C1761       C  0.31060701  0.05947445  0.44958192    -0.04400
C1762       C  0.33228600  0.05609857  0.43160575     0.02600
C1763       C  0.31655247  0.10910487  0.37939347     0.09400
C1764       C  0.26866986  0.11010248  0.41190054     0.35300
C1765       C  0.35498796  0.03940435  0.43900220     0.38800
C1766       C  0.30629437  0.10418548  0.35355827    -0.04800
C1767       C  0.30993539  0.12332038  0.33294579     0.02400
C1768       C  0.32457840  0.14737125  0.33796532    -0.04400
C1769       C  0.33535745  0.15172869  0.36403008    -0.00600
C1770       C  0.33096267  0.13286639  0.38462322    -0.03200
C1771       C  0.29179374  0.07943518  0.34833892     0.36100
C1772       C  0.35148267  0.17531895  0.36991412     0.39700
C1773       C  0.29751894  0.11836782  0.30706319     0.38800
C1774       C  0.34117929  0.13791500  0.41148541     0.35800
C1775       C  0.35472198  0.06660974  0.38845673     0.36400
C1776       C  0.26670515  0.08005668  0.46094096     0.39700
N1777       N  0.28744859  0.11392340  0.28659723    -0.38400
N1778       N  0.28029298  0.05966371  0.34417591    -0.40000
N1779       N  0.36425800  0.19411002  0.37483561    -0.37700
N1780       N  0.34917753  0.14184166  0.43295398    -0.40100
N1781       N  0.25133719  0.12446137  0.40611180    -0.39900
N1782       N  0.24866238  0.08246327  0.47536996    -0.37500
N1783       N  0.37330759  0.02646775  0.44509252    -0.38600
N1784       N  0.37191240  0.06325312  0.37320078    -0.40200
C1785       C  0.46491822  0.25408413  0.56439319    -0.05200
C1786       C  0.47060085  0.24061856  0.58857695     0.09000
C1787       C  0.49464130  0.22594776  0.59126927    -0.02500
C1788       C  0.51259520  0.22383966  0.56943058    -0.00800
C1789       C  0.50618189  0.23591908  0.54440891    -0.04400
C1790       C  0.48247417  0.25171413  0.54235648     0.02600
C1791       C  0.45084478  0.24141478  0.61110272     0.09400
C1792       C  0.50054283  0.21259140  0.61650496     0.35300
C1793       C  0.47606722  0.26599802  0.51772656     0.38800
C1794       C  0.42980982  0.22249043  0.61202831    -0.04800
C1795       C  0.41134676  0.22287393  0.63344723     0.02400
C1796       C  0.41356428  0.24254507  0.65387084    -0.04400
C1797       C  0.43427727  0.26191590  0.65249144    -0.00600
C1798       C  0.45302983  0.26114033  0.63129760    -0.03200
C1799       C  0.42727071  0.20255043  0.59090554     0.36100
C1800       C  0.43558410  0.28340881  0.67212236     0.39700
C1801       C  0.39070628  0.20233985  0.63490808     0.38800
C1802       C  0.47456882  0.28069671  0.63007917     0.35800
C1803       C  0.44083597  0.27037542  0.56223147     0.36400
C1804       C  0.53716961  0.20856993  0.57279698     0.39700
N1805       N  0.37438401  0.18583529  0.63598910    -0.38400
N1806       N  0.42520173  0.18672145  0.57400270    -0.40000
N1807       N  0.43657106  0.30075263  0.68756984    -0.37700
N1808       N  0.49185128  0.29619117  0.62901585    -0.40100
N1809       N  0.50507421  0.20198083  0.63669088    -0.39900
N1810       N  0.55685361  0.19656716  0.57575123    -0.37500
N1811       N  0.47085335  0.27723070  0.49804125    -0.38600
N1812       N  0.42170949  0.28346873  0.56054943    -0.40200
C1813       C  0.50454791  0.23258012  0.39936856    -0.05200
C1814       C  0.47755414  0.22428065  0.40023839     0.09000
C1815       C  0.46708059  0.21277301  0.42382852    -0.02500
C1816       C  0.48318607  0.21055879  0.44690726    -0.00800
C1817       C  0.50969858  0.22114530  0.44708056    -0.04400
C1818       C  0.52052741  0.23150571  0.42279157     0.02600
C1819       C  0.45953096  0.22809449  0.37665310     0.09400
C1820       C  0.43939621  0.20356641  0.42442678     0.35300
C1821       C  0.54759441  0.24217380  0.42182638     0.38800
C1822       C  0.45130289  0.20556430  0.36156391    -0.04800
C1823       C  0.43021240  0.20804284  0.34301775     0.02400
C1824       C  0.41915957  0.23352042  0.33760287    -0.04400
C1825       C  0.42827957  0.25638659  0.35154090    -0.00600
C1826       C  0.44805281  0.25357827  0.37155974    -0.03200
C1827       C  0.46435172  0.17980132  0.36540546     0.36100
C1828       C  0.41688030  0.28258278  0.34562618     0.39700
C1829       C  0.41874338  0.18421631  0.33071093     0.38800
C1830       C  0.45601778  0.27667671  0.38743086     0.35800
C1831       C  0.51572487  0.24230282  0.37428010     0.36400
C1832       C  0.47220038  0.19703065  0.47030478     0.39700
N1833       N  0.40920575  0.16525461  0.32122050    -0.38400
N1834       N  0.47492622  0.15929018  0.36823883    -0.40000
N1835       N  0.40771825  0.30341283  0.34080526    -0.37700
N1836       N  0.46231328  0.29511188  0.40012219    -0.40100
N1837       N  0.41736508  0.19620412  0.42472422    -0.39900
N1838       N  0.46325045  0.18629260  0.48887698    -0.37500
N1839       N  0.56917961  0.25071601  0.42086850    -0.38600
N1840       N  0.52457005  0.24984292  0.35415573    -0.40200
C1841       C  0.48816062  0.57261378  0.25791543    -0.05200
C1842       C  0.48971880  0.59819256  0.24596825     0.09000
C1843       C  0.51312665  0.60582977  0.23212072    -0.02500
C1844       C  0.53539990  0.58835315  0.23110672    -0.00800
C1845       C  0.53486752  0.56338677  0.24493954    -0.04400
C1846       C  0.51055236  0.55523936  0.25752897     0.02600
C1847       C  0.46645539  0.61707002  0.24767320     0.09400
C1848       C  0.51425884  0.63186245  0.21899744     0.35300
C1849       C  0.50824813  0.52925816  0.27056476     0.38800
C1850       C  0.46397625  0.63466385  0.26975166    -0.04800
C1851       C  0.44238043  0.65297188  0.27100370     0.02400
C1852       C  0.42320658  0.65381187  0.25009507    -0.04400
C1853       C  0.42536270  0.63559134  0.22839724    -0.00600
C1854       C  0.44692482  0.61730127  0.22721452    -0.03200
C1855       C  0.48361222  0.63370765  0.29124478     0.36100
C1856       C  0.40594125  0.63613434  0.20674091     0.39700
C1857       C  0.43931150  0.67017934  0.29431144     0.38800
C1858       C  0.44910733  0.59864460  0.20492722     0.35800
C1859       C  0.46339752  0.56433479  0.27083783     0.36400
C1860       C  0.55828187  0.59581498  0.21472634     0.39700
N1861       N  0.43679199  0.68370848  0.31304053    -0.38400
N1862       N  0.49928600  0.63280082  0.30838254    -0.40000
N1863       N  0.39066010  0.63628202  0.18925949    -0.37700
N1864       N  0.45085430  0.58368871  0.18721757    -0.40100
N1865       N  0.51512037  0.65264204  0.20858661    -0.39900
N1866       N  0.57623361  0.60200524  0.20135592    -0.37500
N1867       N  0.50611316  0.50846427  0.28076891    -0.38600
N1868       N  0.44358386  0.55780259  0.28104465    -0.40200
C1869       C  0.46281390  0.72954011  0.14278268    -0.05200
C1870       C  0.46059108  0.74867195  0.12204067     0.09000
C1871       C  0.43725054  0.76439033  0.11965379    -0.02500
C1872       C  0.41630213  0.76143537  0.13836876    -0.00800
C1873       C  0.41912099  0.74345630  0.16028959    -0.04400
C1874       C  0.44227637  0.72708022  0.16203004     0.02600
C1875       C  0.48342548  0.75286347  0.10326540     0.09400
C1876       C  0.43510606  0.78406711  0.09823135     0.35300
C1877       C  0.44477149  0.70709460  0.18308528     0.38800
C1878       C  0.48383611  0.73982242  0.07818412    -0.04800
C1879       C  0.50648429  0.74214507  0.06140244     0.02400
C1880       C  0.52925478  0.75688453  0.07018758    -0.04400
C1881       C  0.52775320  0.77160935  0.09450155    -0.00600
C1882       C  0.50498114  0.76940627  0.11104284    -0.03200
C1883       C  0.46132478  0.72311924  0.07020272     0.36100
C1884       C  0.54936867  0.78951549  0.10236415     0.39700
C1885       C  0.50630066  0.72869688  0.03554157     0.38800
C1886       C  0.50390661  0.78361596  0.13648619     0.35800
C1887       C  0.48637193  0.71244178  0.14425927     0.36400
C1888       C  0.39215229  0.77732774  0.13498487     0.39700
N1889       N  0.50589014  0.71823029  0.01478338    -0.38400
N1890       N  0.44341632  0.70970316  0.06393268    -0.40000
N1891       N  0.56653894  0.80387291  0.10862556    -0.37700
N1892       N  0.50297385  0.79481291  0.15683485    -0.40100
N1893       N  0.43338969  0.79984061  0.08123322    -0.39900
N1894       N  0.37296275  0.78993628  0.13150745    -0.37500
N1895       N  0.44705982  0.69107755  0.19977050    -0.38600
N1896       N  0.50515200  0.69879328  0.14530295    -0.40200
C1897       C  0.43633473  0.73175199  0.38308500    -0.05200
C1898       C  0.45573283  0.75232849  0.38174406     0.09000
C1899       C  0.45607412  0.77001467  0.35967254    -0.02500
C1900       C  0.43719607  0.76701321  0.33879644    -0.00800
C1901       C  0.41744527  0.74658457  0.34017803    -0.04400
C1902       C  0.41702731  0.72906096  0.36257581     0.02600
C1903       C  0.47495437  0.75602009  0.40442724     0.09400
C1904       C  0.47545587  0.79175666  0.35885406     0.35300
C1905       C  0.39695672  0.70803447  0.36457582     0.38800
C1906       C  0.49848298  0.74036135  0.40584980    -0.04800
C1907       C  0.51495402  0.74156055  0.42886047     0.02400
C1908       C  0.50792857  0.75853222  0.45056496    -0.04400
C1909       C  0.48510499  0.77533772  0.44832966    -0.00600
C1910       C  0.46864440  0.77398837  0.42535752    -0.03200
C1911       C  0.50521663  0.72238321  0.38392681     0.36100
C1912       C  0.47851262  0.79412115  0.46961871     0.39700
C1913       C  0.53821189  0.72413391  0.43070351     0.38800
C1914       C  0.44473213  0.79054736  0.42345570     0.35800
C1915       C  0.43611877  0.71354498  0.40586499     0.36400
C1916       C  0.43742781  0.78590596  0.31662851     0.39700
N1917       N  0.55675037  0.71020111  0.43213841    -0.38400
N1918       N  0.51055496  0.70802458  0.36644465    -0.40000
N1919       N  0.47320231  0.80913438  0.48655335    -0.37700
N1920       N  0.42563537  0.80368228  0.42175542    -0.40100
N1921       N  0.49076491  0.80923314  0.35828309    -0.39900
N1922       N  0.43792825  0.80117330  0.29911965    -0.37500
N1923       N  0.38099010  0.69126652  0.36652136    -0.38600
N1924       N  0.43608402  0.69904587  0.42404152    -0.40200
C1925       C  0.33650593  0.84953493  0.37936871    -0.05200
C1926       C  0.31589115  0.86890856  0.37840200     0.09000
C1927       C  0.29806674  0.86942356  0.35643786    -0.02500
C1928       C  0.30044628  0.85010730  0.33578356    -0.00800
C1929       C  0.32090565  0.83033559  0.33691880    -0.04400
C1930       C  0.33939991  0.83075086  0.35844524     0.02600
C1931       C  0.31258990  0.88786966  0.40141000     0.09400
C1932       C  0.27698365  0.88951887  0.35543587     0.35300
C1933       C  0.36218001  0.81262039  0.35859867     0.38800
C1934       C  0.32750223  0.91191343  0.40235237    -0.04800
C1935       C  0.32819267  0.92732696  0.42615156     0.02400
C1936       C  0.31329939  0.91910930  0.44896068    -0.04400
C1937       C  0.29743959  0.89549325  0.44741058    -0.00600
C1938       C  0.29715878  0.87999117  0.42374012    -0.03200
C1939       C  0.34288332  0.92021030  0.37904344     0.36100
C1940       C  0.28169859  0.88666861  0.47028990     0.39700
C1941       C  0.34605326  0.95026789  0.42771142     0.38800
C1942       C  0.28170037  0.85529538  0.42256135     0.35800
C1943       C  0.35436846  0.84855867  0.40238139     0.36400
C1944       C  0.28139120  0.85040239  0.31381137     0.39700
N1945       N  0.36064210  0.96831485  0.42886314    -0.38400
N1946       N  0.35506451  0.92682188  0.36039297    -0.40000
N1947       N  0.26936779  0.87942964  0.48860670    -0.37700
N1948       N  0.26946750  0.83555661  0.42150572    -0.40100
N1949       N  0.26015573  0.90553620  0.35461531    -0.39900
N1950       N  0.26604617  0.85118907  0.29640015    -0.37500
N1951       N  0.38059617  0.79846989  0.35875696    -0.38600
N1952       N  0.36836343  0.84772549  0.42091706    -0.40200
C1953       C  0.22869762  0.60475530  0.27444575    -0.05200
C1954       C  0.20640553  0.60375869  0.25711505     0.09000
C1955       C  0.20282738  0.62390594  0.23753313    -0.02500
C1956       C  0.22191881  0.64470813  0.23486040    -0.00800
C1957       C  0.24422886  0.64590569  0.25246054    -0.04400
C1958       C  0.24706693  0.62614143  0.27270715     0.02600
C1959       C  0.18809808  0.58004109  0.25810591     0.09400
C1960       C  0.17980594  0.62272253  0.21974578     0.35300
C1961       C  0.26822156  0.62818029  0.29256065     0.38800
C1962       C  0.16571816  0.57974545  0.27544475    -0.04800
C1963       C  0.14966700  0.55644263  0.27751257     0.02400
C1964       C  0.15570931  0.53349742  0.26185162    -0.04400
C1965       C  0.17829668  0.53395844  0.24454340    -0.00600
C1966       C  0.19439406  0.55711747  0.24278780    -0.03200
C1967       C  0.15945860  0.60335158  0.29133677     0.36100
C1968       C  0.18499884  0.51077196  0.22816666     0.39700
C1969       C  0.12786079  0.55562139  0.29679315     0.38800
C1970       C  0.21775549  0.55738188  0.22536610     0.35800
C1971       C  0.23318237  0.58308545  0.29342280     0.36400
C1972       C  0.21909474  0.66414071  0.21331827     0.39700
N1973       N  0.11060378  0.55484912  0.31232667    -0.38400
N1974       N  0.15442983  0.62221965  0.30395855    -0.40000
N1975       N  0.19049363  0.49224181  0.21524105    -0.37700
N1976       N  0.23643344  0.55772931  0.21156648    -0.40100
N1977       N  0.16136312  0.62166983  0.20564845    -0.39900
N1978       N  0.21678405  0.67947958  0.19599321    -0.37500
N1979       N  0.28475340  0.62954470  0.30879542    -0.38600
N1980       N  0.23672644  0.56542769  0.30811891    -0.40200
C1981       C  0.18443848  0.40609877  0.27879388    -0.05200
C1982       C  0.18244632  0.39074426  0.25509658     0.09000
C1983       C  0.16301998  0.39704746  0.23553358    -0.02500
C1984       C  0.14650790  0.41970860  0.23897103    -0.00800
C1985       C  0.14916030  0.43570966  0.26227477    -0.04400
C1986       C  0.16746463  0.42830820  0.28259220     0.02600
C1987       C  0.20120265  0.36801601  0.25082738     0.09400
C1988       C  0.16050992  0.38052433  0.21166200     0.35300
C1989       C  0.16852288  0.44331299  0.30755269     0.38800
C1990       C  0.19533778  0.34274920  0.26195944    -0.04800
C1991       C  0.21436326  0.32192975  0.26060226     0.02400
C1992       C  0.23965393  0.32651400  0.24819300    -0.04400
C1993       C  0.24460574  0.35157785  0.23550610    -0.00600
C1994       C  0.22546359  0.37227547  0.23703944    -0.03200
C1995       C  0.16981596  0.33848807  0.27536700     0.36100
C1996       C  0.26911660  0.35619908  0.22041614     0.39700
C1997       C  0.20774141  0.29619867  0.27265043     0.38800
C1998       C  0.23087455  0.39821019  0.22482436     0.35800
C1999       C  0.20445782  0.39936126  0.29889773     0.36400
C2000       C  0.12778254  0.42725149  0.21794024     0.39700
N2001       N  0.20207442  0.27572207  0.28211311    -0.38400
N2002       N  0.14945564  0.33521147  0.28604618    -0.40000
N2003       N  0.28863224  0.36007625  0.20843139    -0.37700
N2004       N  0.23521121  0.41885878  0.21504842    -0.40100
N2005       N  0.15848273  0.36729860  0.19265275    -0.39900
N2006       N  0.11284200  0.43331942  0.20119571    -0.37500
N2007       N  0.16917992  0.45507995  0.32758855    -0.38600
N2008       N  0.22054776  0.39395319  0.31477884    -0.40200
C2009       C  0.30595701  0.56494620  0.39289592    -0.05200
C2010       C  0.32788829  0.58274991  0.39512948     0.09000
C2011       C  0.34788716  0.57788552  0.41458770    -0.02500
C2012       C  0.34616165  0.55520137  0.43150935    -0.00800
C2013       C  0.32503944  0.53645662  0.42819061    -0.04400
C2014       C  0.30470431  0.54167209  0.40907680     0.02600
C2015       C  0.33039682  0.60625170  0.37642750     0.09400
C2016       C  0.37060704  0.59597489  0.41673089     0.35300
C2017       C  0.28210059  0.52345648  0.40655142     0.38800
C2018       C  0.31691595  0.63053936  0.38190060    -0.04800
C2019       C  0.31864593  0.65236086  0.36376192     0.02400
C2020       C  0.33451251  0.65025069  0.34012524    -0.04400
C2021       C  0.34954299  0.62638221  0.33590685    -0.00600
C2022       C  0.34669352  0.60424928  0.35340681    -0.03200
C2023       C  0.30088206  0.63281908  0.40610999     0.36100
C2024       C  0.36892994  0.62477376  0.31424558     0.39700
C2025       C  0.30337678  0.67654611  0.36933220     0.38800
C2026       C  0.36008445  0.57904483  0.34743352     0.35800
C2027       C  0.28470770  0.57063859  0.37386798     0.36400
C2028       C  0.36652290  0.55096979  0.45192979     0.39700
N2029       N  0.29121936  0.69578894  0.37407609    -0.38400
N2030       N  0.28813294  0.63452497  0.42545682    -0.40000
N2031       N  0.38472058  0.62329585  0.29728043    -0.37700
N2032       N  0.37050106  0.55882114  0.34262904    -0.40100
N2033       N  0.38884594  0.61028754  0.41825147    -0.39900
N2034       N  0.38256398  0.54775626  0.46844441    -0.37500
N2035       N  0.26409173  0.50889213  0.40463624    -0.38600
N2036       N  0.26764075  0.57540489  0.35885492    -0.40200
C2037       C  0.34568577  0.40870997  0.39627977    -0.05200
C2038       C  0.32562327  0.38922752  0.40070706     0.09000
C2039       C  0.30644626  0.39317732  0.42112464    -0.02500
C2040       C  0.30670766  0.41707784  0.43641737    -0.00800
C2041       C  0.32556575  0.43751849  0.43058666    -0.04400
C2042       C  0.34528302  0.43305520  0.41067874     0.02600
C2043       C  0.32313780  0.36616750  0.38168226     0.09400
C2044       C  0.28603004  0.37292759  0.42573850     0.35300
C2045       C  0.36520509  0.45354391  0.40494240     0.38800
C2046       C  0.33525405  0.34126604  0.38732758    -0.04800
C2047       C  0.33602111  0.32099019  0.36749597     0.02400
C2048       C  0.32440685  0.32556519  0.34174351    -0.04400
C2049       C  0.31009112  0.34984950  0.33730147    -0.00600
C2050       C  0.30951297  0.36994153  0.35720897    -0.03200
C2051       C  0.34649468  0.33641592  0.41377244     0.36100
C2052       C  0.29494591  0.35409588  0.31276045     0.39700
C2053       C  0.34903839  0.29567922  0.37389511     0.38800
C2054       C  0.29434197  0.39447916  0.35285319     0.35800
C2055       C  0.36667443  0.40369085  0.37671499     0.36400
C2056       C  0.28681131  0.42104297  0.45726629     0.39700
N2057       N  0.35915052  0.27542711  0.37925687    -0.38400
N2058       N  0.35508949  0.33234620  0.43498582    -0.40000
N2059       N  0.28265810  0.35783481  0.29339037    -0.37700
N2060       N  0.28202793  0.41393935  0.34965393    -0.40100
N2061       N  0.26978560  0.35668208  0.42924080    -0.39900
N2062       N  0.27086214  0.42400793  0.47388646    -0.37500
N2063       N  0.38090233  0.47003636  0.40028269    -0.38600
N2064       N  0.38357287  0.39958035  0.36131563    -0.40200
C2065       C  0.15553510  0.22786726  0.38906274    -0.05200
C2066       C  0.17930650  0.23959303  0.39882956     0.09000
C2067       C  0.17979312  0.25101515  0.42471420    -0.02500
C2068       C  0.15598525  0.25247717  0.44009180    -0.00800
C2069       C  0.13173409  0.24115125  0.43012394    -0.04400
C2070       C  0.13219641  0.22770939  0.40493416     0.02600
C2071       C  0.20342829  0.24044412  0.38106157     0.09400
C2072       C  0.20484912  0.26138642  0.43536568     0.35300
C2073       C  0.10895808  0.21299071  0.39527643     0.38800
C2074       C  0.20965219  0.26418344  0.36682667    -0.04800
C2075       C  0.23003059  0.26397463  0.34723241     0.02400
C2076       C  0.24296364  0.23966310  0.34060655    -0.04400
C2077       C  0.23754448  0.21619056  0.35555545    -0.00600
C2078       C  0.21815836  0.21673046  0.37611651    -0.03200
C2079       C  0.19441786  0.28853807  0.37167172     0.36100
C2080       C  0.25145817  0.19134079  0.34934762     0.39700
C2081       C  0.23831585  0.28887176  0.33454222     0.38800
C2082       C  0.21285575  0.19278077  0.39184320     0.35800
C2083       C  0.15499506  0.21644324  0.36220944     0.36400
C2084       C  0.15655727  0.26666259  0.46553984     0.39700
N2085       N  0.24516865  0.30880444  0.32472840    -0.38400
N2086       N  0.18212590  0.30790314  0.37545857    -0.40000
N2087       N  0.26241566  0.17146730  0.34432398    -0.37700
N2088       N  0.20859934  0.17374304  0.40449094    -0.40100
N2089       N  0.22490222  0.26946914  0.44388032    -0.39900
N2090       N  0.15719359  0.27806893  0.48579216    -0.37500
N2091       N  0.09052937  0.20117184  0.38748055    -0.38600
N2092       N  0.15473010  0.20750354  0.34075469    -0.40200
C2093       C  0.98699812  0.23713451  0.41730421    -0.05200
C2094       C  0.98771277  0.25093671  0.39256047     0.09000
C2095       C  0.01059544  0.26603854  0.38566339    -0.02500
C2096       C  0.03308671  0.26654182  0.40287304    -0.00800
C2097       C  0.03335411  0.25101242  0.42676996    -0.04400
C2098       C  0.00995845  0.23648564  0.43401364     0.02600
C2099       C  0.96493131  0.24860084  0.37301043     0.09400
C2100       C  0.01091250  0.28104924  0.36067771     0.35300
C2101       C  0.00982245  0.21963032  0.45779782     0.38800
C2102       C  0.94332698  0.26687086  0.37386440    -0.04800
C2103       C  0.92226695  0.26495311  0.35495839     0.02400
C2104       C  0.92286123  0.24493067  0.33473516    -0.04400
C2105       C  0.94479477  0.22690274  0.33369738    -0.00600
C2106       C  0.96571519  0.22877452  0.35274452    -0.03200
C2107       C  0.94330059  0.28824653  0.39366443     0.36100
C2108       C  0.94562903  0.20597383  0.31342255     0.39700
C2109       C  0.90057785  0.28438019  0.35575248     0.38800
C2110       C  0.98845879  0.21063789  0.35118877     0.35800
C2111       C  0.96252530  0.22370486  0.42556810     0.36400
C2112       C  0.05571570  0.28359941  0.39611507     0.39700
N2113       N  0.88340409  0.30000860  0.35656999    -0.38400
N2114       N  0.94338346  0.30545233  0.40929888    -0.40000
N2115       N  0.94638395  0.18924079  0.29730116    -0.37700
N2116       N  0.00671756  0.19632297  0.34987360    -0.40100
N2117       N  0.01102205  0.29296601  0.34071706    -0.39900
N2118       N  0.07373454  0.29726697  0.39078676    -0.37500
N2119       N  0.00971963  0.20601598  0.47665267    -0.38600
N2120       N  0.94286303  0.21336166  0.43235776    -0.40200
C2121       C  0.17076004  0.07286337  0.25960502    -0.05200
C2122       C  0.17518828  0.09297752  0.24016925     0.09000
C2123       C  0.15767346  0.09563001  0.21812280    -0.02500
C2124       C  0.13586072  0.07794447  0.21531532    -0.00800
C2125       C  0.13074117  0.05840628  0.23527709    -0.04400
C2126       C  0.14830068  0.05584636  0.25741360     0.02600
C2127       C  0.19798955  0.11196166  0.24330077     0.09400
C2128       C  0.16142224  0.11740036  0.19908644     0.35300
C2129       C  0.14216068  0.03727084  0.27899873     0.38800
C2130       C  0.22242286  0.10686574  0.23012091    -0.04800
C2131       C  0.24411938  0.12473638  0.23312202     0.02400
C2132       C  0.24094470  0.14868393  0.24832008    -0.04400
C2133       C  0.21636314  0.15329261  0.26201075    -0.00600
C2134       C  0.19499801  0.13501933  0.25936051    -0.03200
C2135       C  0.22483453  0.08357966  0.21272430     0.36100
C2136       C  0.21297358  0.17645244  0.27944127     0.39700
C2137       C  0.26947512  0.11814812  0.22040298     0.38800
C2138       C  0.16957802  0.14025124  0.27261973     0.35800
C2139       C  0.18872409  0.07053552  0.28243781     0.36400
C2140       C  0.11850587  0.08001931  0.19198111     0.39700
N2141       N  0.28970583  0.11232802  0.21058166    -0.38400
N2142       N  0.22652732  0.06518711  0.19860494    -0.40000
N2143       N  0.21002800  0.19490253  0.29327960    -0.37700
N2144       N  0.14928732  0.14449839  0.28309364    -0.40100
N2145       N  0.16427507  0.13500175  0.18416108    -0.39900
N2146       N  0.10470693  0.08159726  0.17334185    -0.37500
N2147       N  0.13711478  0.02274248  0.29642388    -0.38600
N2148       N  0.20304154  0.06881556  0.30066816    -0.40200
C2149       C  0.96550887  0.14108101  0.22186533    -0.05200
C2150       C  0.96585442  0.11815811  0.23842239     0.09000
C2151       C  0.94451186  0.11338108  0.25634231    -0.02500
C2152       C  0.92286633  0.13158724  0.25791385    -0.00800
C2153       C  0.92258602  0.15497367  0.24167195    -0.04400
C2154       C  0.94405788  0.15947510  0.22348880     0.02600
C2155       C  0.98933064  0.09951883  0.23785363     0.09400
C2156       C  0.94520616  0.08986128  0.27354812     0.35300
C2157       C  0.94426864  0.18282681  0.20607715     0.38800
C2158       C  0.01059367  0.10327871  0.25612222    -0.04800
C2159       C  0.03266777  0.08561431  0.25597627     0.02400
C2160       C  0.03353546  0.06385895  0.23760026    -0.04400
C2161       C  0.01233867  0.06037663  0.21906725    -0.00600
C2162       C  0.99030326  0.07821903  0.21919149    -0.03200
C2163       C  0.00982551  0.12560098  0.27488763     0.36100
C2164       C  0.01390796  0.03946460  0.19886246     0.39700
C2165       C  0.05453171  0.09000490  0.27478023     0.38800
C2166       C  0.96882625  0.07511891  0.19977356     0.35800
C2167       C  0.98746113  0.14583885  0.20329567     0.36400
C2168       C  0.90151954  0.12660970  0.27708105     0.39700
N2169       N  0.07208693  0.09366088  0.28956996    -0.38400
N2170       N  0.00918535  0.14342274  0.28980795    -0.40000
N2171       N  0.01523566  0.02292102  0.18258787    -0.37700
N2172       N  0.95168797  0.07285511  0.18424286    -0.40100
N2173       N  0.94596499  0.07110299  0.28726725    -0.39900
N2174       N  0.88455526  0.12242256  0.29238464    -0.37500
N2175       N  0.94513653  0.20137910  0.19211511    -0.38600
N2176       N  0.00491311  0.14965647  0.18844871    -0.40200
C2177       C  0.98980382  0.74537027  0.41634906    -0.05200
C2178       C  0.98612362  0.72737337  0.39480527     0.09000
C2179       C  0.00428896  0.70599350  0.39092238    -0.02500
C2180       C  0.02623860  0.70272991  0.40846502    -0.00800
C2181       C  0.03067493  0.72147659  0.42931891    -0.04400
C2182       C  0.01229110  0.74274969  0.43329549     0.02600
C2183       C  0.96325490  0.73117346  0.37586264     0.09400
C2184       C  0.00076661  0.68788464  0.36835705     0.35300
C2185       C  0.01737163  0.76295508  0.45368636     0.38800
C2186       C  0.96547060  0.74952762  0.35441165    -0.04800
C2187       C  0.94406238  0.75276731  0.33618944     0.02400
C2188       C  0.92058407  0.73697004  0.33882551    -0.04400
C2189       C  0.91818101  0.71915608  0.36096865    -0.00600
C2190       C  0.93944527  0.71640097  0.37941900    -0.03200
C2191       C  0.98995824  0.76492004  0.35103083     0.36100
C2192       C  0.89412176  0.70323109  0.36486074     0.39700
C2193       C  0.94586328  0.77312808  0.31538330     0.38800
C2194       C  0.93696072  0.69824779  0.40211788     0.35800
C2195       C  0.97071006  0.76695350  0.42063196     0.36400
C2196       C  0.04413257  0.67995343  0.40519956     0.39700
N2197       N  0.94720799  0.78949842  0.29892069    -0.38400
N2198       N  0.00953925  0.77713235  0.34836726    -0.40000
N2199       N  0.87498753  0.69060516  0.36856536    -0.37700
N2200       N  0.93501510  0.68382502  0.42025059    -0.40100
N2201       N  0.99797309  0.67362133  0.35021472    -0.39900
N2202       N  0.05829336  0.66168396  0.40271022    -0.37500
N2203       N  0.02161439  0.77913231  0.46983693    -0.38600
N2204       N  0.95542897  0.78413428  0.42402387    -0.40200
C2205       C  0.19632683  0.71454595  0.35367956    -0.05200
C2206       C  0.19764481  0.73063887  0.37690919     0.09000
C2207       C  0.21982305  0.74769338  0.38099939    -0.02500
C2208       C  0.24030532  0.74932718  0.36149506    -0.00800
C2209       C  0.23880449  0.73369515  0.33769871    -0.04400
C2210       C  0.21659120  0.71620982  0.33401485     0.02600
C2211       C  0.17446598  0.73102250  0.39593317     0.09400
C2212       C  0.22129743  0.76386465  0.40519671     0.35300
C2213       C  0.21425117  0.69970279  0.31012655     0.38800
C2214       C  0.17526772  0.71618433  0.42005328    -0.04800
C2215       C  0.15231092  0.71469344  0.43661918     0.02400
C2216       C  0.12843497  0.72823015  0.42912522    -0.04400
C2217       C  0.12834820  0.74438670  0.40563373    -0.00600
C2218       C  0.15113386  0.74544517  0.38899896    -0.03200
C2219       C  0.19955054  0.70187235  0.42737884     0.36100
C2220       C  0.10499490  0.76040667  0.39859840     0.39700
C2221       C  0.15308200  0.69829007  0.46069441     0.38800
C2222       C  0.15043981  0.76099630  0.36431612     0.35800
C2223       C  0.17389405  0.69624869  0.35007486     0.36400
C2224       C  0.26212805  0.76821319  0.36549641     0.39700
N2225       N  0.15375495  0.68523563  0.47992662    -0.38400
N2226       N  0.21899288  0.69055514  0.43320741    -0.40000
N2227       N  0.08637316  0.77312812  0.39295515    -0.37700
N2228       N  0.14985069  0.77321869  0.34454548    -0.40100
N2229       N  0.22249457  0.77660940  0.42459937    -0.39900
N2230       N  0.27941638  0.78337013  0.36887037    -0.37500
N2231       N  0.21166187  0.68653035  0.29116116    -0.38600
N2232       N  0.15600092  0.68167308  0.34734670    -0.40200
C2233       C  0.98467798  0.90745682  0.22480514    -0.05200
C2234       C  0.98069595  0.88786269  0.24487684     0.09000
C2235       C  0.99935988  0.88524610  0.26601556    -0.02500
C2236       C  0.02248698  0.90148205  0.26655383    -0.00800
C2237       C  0.02710047  0.92042090  0.24588968    -0.04400
C2238       C  0.00790501  0.92364812  0.22521982     0.02600
C2239       C  0.95751337  0.86896527  0.24329150     0.09400
C2240       C  0.99495553  0.86539295  0.28692560     0.35300
C2241       C  0.01278104  0.94245449  0.20350672     0.38800
C2242       C  0.95904118  0.84615381  0.22659539    -0.04800
C2243       C  0.93813653  0.82713711  0.22661348     0.02400
C2244       C  0.91628684  0.82994943  0.24455426    -0.04400
C2245       C  0.91450208  0.85327236  0.26078097    -0.00600
C2246       C  0.93481469  0.87295781  0.25966293    -0.03200
C2247       C  0.98248679  0.84191033  0.20983589     0.36100
C2248       C  0.89245285  0.85671379  0.27947463     0.39700
C2249       C  0.93876801  0.80529783  0.20733957     0.38800
C2250       C  0.93265194  0.89723904  0.27563538     0.35800
C2251       C  0.96507258  0.91053903  0.20348193     0.36400
C2252       C  0.04156429  0.89863305  0.28840950     0.39700
N2253       N  0.93945923  0.78821336  0.19160874    -0.38400
N2254       N  0.00120329  0.83836166  0.19654768    -0.40000
N2255       N  0.87500780  0.85971308  0.29450718    -0.37700
N2256       N  0.93093567  0.91669866  0.28824007    -0.40100
N2257       N  0.99129753  0.84958043  0.30357568    -0.39900
N2258       N  0.05677982  0.89631678  0.30582860    -0.37500
N2259       N  0.01678541  0.95737086  0.18613202    -0.38600
N2260       N  0.94940414  0.91298361  0.18648904    -0.40200
C2261       C  0.16943676  0.90447048  0.25955146    -0.05200
C2262       C  0.17041981  0.88171017  0.24267140     0.09000
C2263       C  0.14909731  0.87662055  0.22474119    -0.02500
C2264       C  0.12660015  0.89380708  0.22412845    -0.00800
C2265       C  0.12513102  0.91621139  0.24162649    -0.04400
C2266       C  0.14681828  0.92158998  0.25916291     0.02600
C2267       C  0.19359191  0.86258126  0.24418277     0.09400
C2268       C  0.15024879  0.85345308  0.20706865     0.35300
C2269       C  0.14535087  0.94387048  0.27784484     0.38800
C2270       C  0.19491865  0.84347546  0.26509857    -0.04800
C2271       C  0.21600752  0.82457670  0.26587616     0.02400
C2272       C  0.23608581  0.82474556  0.24580367    -0.04400
C2273       C  0.23498815  0.84425251  0.22513420    -0.00600
C2274       C  0.21376646  0.86303513  0.22431812    -0.03200
C2275       C  0.17453885  0.84332242  0.28589611     0.36100
C2276       C  0.25520133  0.84461154  0.20419096     0.39700
C2277       C  0.21763318  0.80570728  0.28804906     0.38800
C2278       C  0.21251781  0.88281640  0.20293828     0.35800
C2279       C  0.19165389  0.91002549  0.27755339     0.36400
C2280       C  0.10508793  0.88850597  0.20517968     0.39700
N2281       N  0.21895990  0.79083422  0.30586857    -0.38400
N2282       N  0.15837774  0.84329316  0.30258009    -0.40000
N2283       N  0.27120575  0.84513256  0.18737323    -0.37700
N2284       N  0.21138305  0.89857545  0.18587727    -0.40100
N2285       N  0.15128531  0.83502443  0.19292943    -0.39900
N2286       N  0.08790319  0.88425834  0.19011789    -0.37500
N2287       N  0.14420438  0.96152565  0.29291371    -0.38600
N2288       N  0.20941295  0.91436635  0.29190020    -0.40200
C2289       C  0.15193596  0.70677142  0.61160201    -0.05200
C2290       C  0.17365321  0.72375936  0.60536084     0.09000
C2291       C  0.17288921  0.73970956  0.58196143    -0.02500
C2292       C  0.15004380  0.73934370  0.56523047    -0.00800
C2293       C  0.12752007  0.72350298  0.57228846    -0.04400
C2294       C  0.12877382  0.70690886  0.59540579     0.02600
C2295       C  0.19629256  0.72655476  0.62476887     0.09400
C2296       C  0.19536458  0.75712752  0.57563407     0.35300
C2297       C  0.10624736  0.68996515  0.60280453     0.38800
C2298       C  0.21701075  0.70729072  0.62561699    -0.04800
C2299       C  0.23783943  0.70972037  0.64466083     0.02400
C2300       C  0.23812059  0.73158438  0.66281060    -0.04400
C2301       C  0.21702362  0.75059000  0.66213268    -0.00600
C2302       C  0.19625914  0.74810794  0.64312588    -0.03200
C2303       C  0.21657103  0.68475710  0.60714118     0.36100
C2304       C  0.21664269  0.77296691  0.68074762     0.39700
C2305       C  0.25811186  0.68890823  0.64643156     0.38800
C2306       C  0.17457686  0.76760320  0.64258011     0.35800
C2307       C  0.15330520  0.68947452  0.63505268     0.36400
C2308       C  0.14935043  0.75632937  0.54154642     0.39700
N2309       N  0.27401006  0.67202009  0.64773583    -0.38400
N2310       N  0.21609766  0.66674067  0.59245357    -0.40000
N2311       N  0.21589291  0.79094997  0.69542597    -0.37700
N2312       N  0.15726411  0.78310057  0.64204714    -0.40100
N2313       N  0.21325721  0.77111810  0.57073901    -0.39900
N2314       N  0.14886984  0.76980976  0.52260416    -0.37500
N2315       N  0.08828800  0.67660469  0.60902777    -0.38600
N2316       N  0.15453652  0.67552976  0.65361895    -0.40200
C2317       C  0.99527937  0.70837947  0.59740148    -0.05200
C2318       C  0.98398382  0.73364198  0.60364019     0.09000
C2319       C  0.99512797  0.75727710  0.59254949    -0.02500
C2320       C  0.01821867  0.75574958  0.57632302    -0.00800
C2321       C  0.02965237  0.73053440  0.57040157    -0.04400
C2322       C  0.01790714  0.70683575  0.58053505     0.02600
C2323       C  0.96146543  0.73563618  0.62332241     0.09400
C2324       C  0.98313922  0.78319862  0.59842683     0.35300
C2325       C  0.02953751  0.68091059  0.57403540     0.38800
C2326       C  0.96648215  0.74574940  0.64924494    -0.04800
C2327       C  0.94531057  0.74895505  0.66763454     0.02400
C2328       C  0.91895168  0.74014471  0.66100702    -0.04400
C2329       C  0.91406438  0.73001459  0.63470516    -0.00600
C2330       C  0.93523778  0.72804927  0.61598731    -0.03200
C2331       C  0.99370959  0.75259339  0.65715437     0.36100
C2332       C  0.88749922  0.72123138  0.62654251     0.39700
C2333       C  0.95094196  0.76234340  0.69295085     0.38800
C2334       C  0.93013475  0.71796635  0.58910754     0.35800
C2335       C  0.98414546  0.68408656  0.60903456     0.36400
C2336       C  0.03082675  0.78014633  0.56658273     0.39700
N2337       N  0.95569285  0.77308676  0.71301276    -0.38400
N2338       N  0.01539257  0.75798002  0.66351760    -0.40000
N2339       N  0.86638133  0.71426584  0.61978920    -0.37700
N2340       N  0.92612536  0.70979437  0.56771914    -0.40100
N2341       N  0.97353321  0.80381103  0.60327512    -0.39900
N2342       N  0.04098289  0.79963254  0.55899425    -0.37500
N2343       N  0.03887459  0.66028324  0.56875224    -0.38600
N2344       N  0.97523237  0.66471204  0.61829398    -0.40200
C2345       C  0.19116900  0.84088804  0.74809027    -0.05200
C2346       C  0.19485697  0.86241597  0.73001859     0.09000
C2347       C  0.21996555  0.86605364  0.71755529    -0.02500
C2348       C  0.24144512  0.84852695  0.72334948    -0.00800
C2349       C  0.23804364  0.82706562  0.74184318    -0.04400
C2350       C  0.21276823  0.82370241  0.75451275     0.02600
C2351       C  0.17271751  0.88222435  0.72528727     0.09400
C2352       C  0.22357410  0.88770995  0.69834297     0.35300
C2353       C  0.20903027  0.80309216  0.77482271     0.38800
C2354       C  0.16608660  0.90095823  0.74552713    -0.04800
C2355       C  0.14456856  0.91894959  0.74178075     0.02400
C2356       C  0.13021660  0.91909375  0.71734296    -0.04400
C2357       C  0.13786424  0.90144623  0.69648266    -0.00600
C2358       C  0.15854668  0.88251528  0.70071244    -0.03200
C2359       C  0.18106687  0.90124639  0.77051953     0.36100
C2360       C  0.12480502  0.90315410  0.67050694     0.39700
C2361       C  0.13622431  0.93626784  0.76366711     0.38800
C2362       C  0.16466959  0.86273450  0.68020208     0.35800
C2363       C  0.16487474  0.83611784  0.75966166     0.36400
C2364       C  0.26674348  0.85259724  0.70958073     0.39700
N2365       N  0.12936658  0.94993700  0.78116277    -0.38400
N2366       N  0.19301851  0.90133634  0.79045368    -0.40000
N2367       N  0.11479360  0.90476621  0.64958755    -0.37700
N2368       N  0.16953430  0.84681336  0.66397435    -0.40100
N2369       N  0.22637090  0.90477180  0.68279693    -0.39900
N2370       N  0.28674089  0.85657431  0.69849328    -0.37500
N2371       N  0.20605083  0.78674905  0.79109896    -0.38600
N2372       N  0.14385275  0.83221056  0.76872758    -0.40200
C2373       C  0.00542130  0.87683370  0.71157674    -0.05200
C2374       C  0.98682065  0.88421870  0.73156828     0.09000
C2375       C  0.99103106  0.90781294  0.74661641    -0.02500
C2376       C  0.01367722  0.92414570  0.74163501    -0.00800
C2377       C  0.03238225  0.91704808  0.72135996    -0.04400
C2378       C  0.02809190  0.89308713  0.70645771     0.02600
C2379       C  0.96307557  0.86661625  0.73713137     0.09400
C2380       C  0.97239941  0.91476969  0.76787846     0.35300
C2381       C  0.04688653  0.88485074  0.68580300     0.38800
C2382       C  0.96541292  0.84494688  0.75519377    -0.04800
C2383       C  0.94380111  0.82703080  0.75888876     0.02400
C2384       C  0.91951034  0.83058918  0.74442639    -0.04400
C2385       C  0.91678363  0.85330596  0.72738293    -0.00600
C2386       C  0.93855756  0.87112752  0.72373513    -0.03200
C2387       C  0.99019319  0.84110401  0.77001382     0.36100
C2388       C  0.89199981  0.85816128  0.71285242     0.39700
C2389       C  0.94656041  0.80525042  0.77810672     0.38800
C2390       C  0.93594941  0.89402851  0.70587906     0.35800
C2391       C  0.00136964  0.85210320  0.69661659     0.36400
C2392       C  0.01846580  0.94730297  0.75866941     0.39700
N2393       N  0.94885953  0.78788243  0.79339996    -0.38400
N2394       N  0.00989381  0.83804992  0.78194872    -0.40000
N2395       N  0.87230086  0.86242670  0.70128157    -0.37700
N2396       N  0.93392836  0.91235184  0.69170236    -0.40100
N2397       N  0.95758258  0.92020310  0.78492271    -0.39900
N2398       N  0.02237499  0.96570687  0.77232924    -0.37500
N2399       N  0.06171446  0.87779347  0.66937499    -0.38600
N2400       N  0.99806612  0.83230625  0.68486697    -0.40200
C2401       C  0.21547556  0.26336314  0.62779002    -0.05200
C2402       C  0.19370504  0.24528168  0.62796461     0.09000
C2403       C  0.19315141  0.22416797  0.64690666    -0.02500
C2404       C  0.21468061  0.22058739  0.66498725    -0.00800
C2405       C  0.23630736  0.23892558  0.66515591    -0.04400
C2406       C  0.23640672  0.26055253  0.64663158     0.02600
C2407       C  0.17110342  0.24854869  0.60837482     0.09400
C2408       C  0.16999517  0.20656605  0.64816876     0.35300
C2409       C  0.25730079  0.28084286  0.64773967     0.38800
C2410       C  0.16911014  0.23134858  0.58595132    -0.04800
C2411       C  0.14681284  0.23310220  0.56850666     0.02400
C2412       C  0.12632683  0.25228460  0.57326971    -0.04400
C2413       C  0.12916811  0.27038892  0.59506317    -0.00600
C2414       C  0.15131605  0.26833910  0.61264856    -0.03200
C2415       C  0.18990402  0.21149618  0.58116523     0.36100
C2416       C  0.10974282  0.29167279  0.59917627     0.39700
C2417       C  0.14454495  0.21430549  0.54636153     0.38800
C2418       C  0.15359082  0.28630499  0.63551112     0.35800
C2419       C  0.21613128  0.28516796  0.60845257     0.36400
C2420       C  0.21490016  0.19754968  0.68276464     0.39700
N2421       N  0.14278819  0.19931343  0.52867994    -0.38400
N2422       N  0.20652347  0.19566798  0.57749645    -0.40000
N2423       N  0.09459819  0.30892985  0.60273467    -0.37700
N2424       N  0.15556245  0.30058550  0.65375184    -0.40100
N2425       N  0.15131162  0.19279788  0.64917957    -0.39900
N2426       N  0.21499667  0.17895414  0.69669368    -0.37500
N2427       N  0.27372587  0.29724922  0.64859802    -0.38600
N2428       N  0.21673485  0.30265050  0.59313382    -0.40200
C2429       C  0.93178384  0.25477234  0.61243586    -0.05200
C2430       C  0.95736288  0.24394507  0.61777728     0.09000
C2431       C  0.96231638  0.23132071  0.64255194    -0.02500
C2432       C  0.94196251  0.22972132  0.66210659    -0.00800
C2433       C  0.91635637  0.24152524  0.65754933    -0.04400
C2434       C  0.91146471  0.25399262  0.63227811     0.02600
C2435       C  0.97985473  0.24679223  0.59806141     0.09400
C2436       C  0.98872604  0.22015389  0.64802328     0.35300
C2437       C  0.88599442  0.26697788  0.62668830     0.38800
C2438       C  0.99439209  0.27110377  0.59674906    -0.04800
C2439       C  0.01777075  0.27280384  0.58092805     0.02400
C2440       C  0.02762932  0.24980520  0.56767250    -0.04400
C2441       C  0.01258235  0.22575994  0.56809805    -0.00600
C2442       C  0.98847629  0.22441076  0.58290621    -0.03200
C2443       C  0.98594035  0.29400329  0.61265197     0.36100
C2444       C  0.02239702  0.20215230  0.55411037     0.39700
C2445       C  0.03122072  0.29841170  0.57756790     0.38800
C2446       C  0.97290199  0.19979217  0.58326661     0.35800
C2447       C  0.92646629  0.26676195  0.58641475     0.36400
C2448       C  0.94776177  0.21527614  0.68663827     0.39700
N2449       N  0.04156228  0.31898910  0.57441518    -0.38400
N2450       N  0.97927437  0.31217263  0.62552922    -0.40000
N2451       N  0.03028522  0.18330756  0.54301094    -0.37700
N2452       N  0.96040909  0.18018931  0.58354773    -0.40100
N2453       N  0.00977481  0.21127021  0.65226032    -0.39900
N2454       N  0.95309566  0.20367171  0.70600762    -0.37500
N2455       N  0.86574681  0.27738631  0.62201039    -0.38600
N2456       N  0.92221515  0.27620385  0.56559922    -0.40200
C2457       C  0.21909977  0.10962249  0.72588048    -0.05200
C2458       C  0.19728682  0.11247544  0.74371173     0.09000
C2459       C  0.19833928  0.13241913  0.76379812    -0.02500
C2460       C  0.22046864  0.15015600  0.76527546    -0.00800
C2461       C  0.24161301  0.14857293  0.74624717    -0.04400
C2462       C  0.24133238  0.12726814  0.72736115     0.02600
C2463       C  0.17253461  0.09551646  0.74013056     0.09400
C2464       C  0.17627230  0.13508316  0.78259057     0.35300
C2465       C  0.26348285  0.12351735  0.70897387     0.38800
C2466       C  0.16852687  0.07197685  0.75545555    -0.04800
C2467       C  0.14558125  0.05571203  0.75111591     0.02400
C2468       C  0.12642017  0.06283960  0.73131229    -0.04400
C2469       C  0.13022560  0.08692635  0.71656417    -0.00600
C2470       C  0.15313002  0.10304139  0.72093809    -0.03200
C2471       C  0.18784816  0.06479563  0.77601914     0.36100
C2472       C  0.11071380  0.09535224  0.69664146     0.39700
C2473       C  0.14098890  0.03251290  0.76812451     0.38800
C2474       C  0.15665588  0.12769652  0.70579326     0.35800
C2475       C  0.21818060  0.08889558  0.70540441     0.36400
C2476       C  0.22189988  0.16938857  0.78714090     0.39700
N2477       N  0.13721865  0.01413773  0.78186229    -0.38400
N2478       N  0.20320982  0.05919181  0.79253931    -0.40000
N2479       N  0.09527892  0.10255096  0.68083301    -0.37700
N2480       N  0.15938992  0.14738046  0.69373816    -0.40100
N2481       N  0.15865997  0.13724246  0.79757854    -0.39900
N2482       N  0.22310532  0.18450817  0.80475870    -0.37500
N2483       N  0.28098938  0.11962530  0.69425444    -0.38600
N2484       N  0.21723233  0.07242126  0.68902895    -0.40200
C2485       C  0.99134099  0.07563207  0.75300950    -0.05200
C2486       C  0.98252141  0.09193266  0.73155146     0.09000
C2487       C  0.99613796  0.09105477  0.70671096    -0.02500
C2488       C  0.01908999  0.07467352  0.70368712    -0.00800
C2489       C  0.02831097  0.05889512  0.72540527    -0.04400
C2490       C  0.01411465  0.05909378  0.74991634     0.02600
C2491       C  0.96036560  0.11175297  0.73603416     0.09400
C2492       C  0.98697393  0.10769989  0.68460358     0.35300
C2493       C  0.02384820  0.04337409  0.77243948     0.38800
C2494       C  0.96669881  0.13828032  0.74342836    -0.04800
C2495       C  0.94618771  0.15664853  0.74993625     0.02400
C2496       C  0.91870646  0.14967239  0.74610553    -0.04400
C2497       C  0.91253271  0.12257096  0.73896816    -0.00600
C2498       C  0.93332160  0.10375761  0.73446929    -0.03200
C2499       C  0.99455796  0.14682834  0.74393228     0.36100
C2500       C  0.88499431  0.11360763  0.73567409     0.39700
C2501       C  0.95389934  0.18224414  0.76166119     0.38800
C2502       C  0.92693343  0.07608396  0.72785441     0.35800
C2503       C  0.97764105  0.07688440  0.77867460     0.36400
C2504       C  0.03350892  0.07445940  0.67840425     0.39700
N2505       N  0.96032843  0.20256397  0.77097794    -0.38400
N2506       N  0.01672893  0.15374868  0.74387565    -0.40000
N2507       N  0.86309369  0.10633086  0.73294422    -0.37700
N2508       N  0.92180105  0.05399455  0.72271470    -0.40100
N2509       N  0.97965386  0.12105734  0.66703042    -0.39900
N2510       N  0.04490454  0.07436512  0.65815706    -0.37500
N2511       N  0.03175926  0.03092196  0.79040805    -0.38600
N2512       N  0.96668280  0.07805513  0.79912684    -0.40200
C2513       C  0.49755472  0.08179672  0.24212505    -0.05200
C2514       C  0.47802203  0.08562228  0.26226040     0.09000
C2515       C  0.47599475  0.06725454  0.28372931    -0.02500
C2516       C  0.49306815  0.04471318  0.28468081    -0.00800
C2517       C  0.51149446  0.04000969  0.26366326    -0.04400
C2518       C  0.51407902  0.05884538  0.24264408     0.02600
C2519       C  0.45807610  0.10775006  0.25940348     0.09400
C2520       C  0.45552484  0.07094358  0.30410416     0.35300
C2521       C  0.53243913  0.05372699  0.22064004     0.38800
C2522       C  0.43378185  0.10280444  0.24586160    -0.04800
C2523       C  0.41546485  0.12385385  0.24137459     0.02400
C2524       C  0.42057546  0.14990618  0.25183881    -0.04400
C2525       C  0.44557678  0.15488592  0.26479567    -0.00600
C2526       C  0.46407991  0.13377042  0.26865383    -0.03200
C2527       C  0.42759433  0.07581725  0.23666361     0.36100
C2528       C  0.45274597  0.18154821  0.27419349     0.39700
C2529       C  0.39213366  0.11875317  0.22463475     0.38800
C2530       C  0.48929717  0.13866542  0.28242343     0.35800
C2531       C  0.49969363  0.10090545  0.22021629     0.36400
C2532       C  0.49169472  0.02629080  0.30723285     0.39700
N2533       N  0.37370016  0.11459209  0.21110573    -0.38400
N2534       N  0.42262248  0.05423196  0.22959242    -0.40000
N2535       N  0.45887525  0.20274865  0.28153733    -0.37700
N2536       N  0.50938135  0.14255242  0.29344216    -0.40100
N2537       N  0.43899903  0.07375407  0.32018616    -0.39900
N2538       N  0.49080887  0.01166781  0.32528985    -0.37500
N2539       N  0.54690355  0.04953066  0.20295767    -0.38600
N2540       N  0.50127275  0.11623100  0.20280353    -0.40200
C2541       C  0.49020343  0.90080861  0.27287941    -0.05200
C2542       C  0.47341642  0.89769995  0.25020568     0.09000
C2543       C  0.47463619  0.91665552  0.22912355    -0.02500
C2544       C  0.49220243  0.93881001  0.23093075    -0.00800
C2545       C  0.50827554  0.94238741  0.25404034    -0.04400
C2546       C  0.50728058  0.92330842  0.27497020     0.02600
C2547       C  0.45323615  0.87539661  0.24934795     0.09400
C2548       C  0.45724065  0.91373123  0.20592576     0.55300
C2549       C  0.52256122  0.92775032  0.29937916     0.38800
C2550       C  0.42997210  0.87692066  0.26540443    -0.04800
C2551       C  0.41097690  0.85592971  0.26506641     0.02400
C2552       C  0.41485054  0.83324408  0.24827617    -0.04400
C2553       C  0.43791417  0.83215519  0.23162924    -0.00600
C2554       C  0.45714037  0.85299841  0.23243750    -0.03200
C2555       C  0.42558712  0.90025212  0.28235000     0.36100
C2556       C  0.44145155  0.81026330  0.21272336     0.39700
C2557       C  0.38778205  0.85763261  0.28260340     0.38800
C2558       C  0.48101847  0.85146816  0.21583500     0.35800
C2559       C  0.48939314  0.88112797  0.29435627     0.36400
C2560       C  0.49369685  0.95800620  0.20903445     0.39700
N2561       N  0.36931345  0.85928384  0.29658647    -0.38400
N2562       N  0.42216966  0.91882570  0.29590913    -0.40000
N2563       N  0.44445957  0.79301787  0.19743153    -0.37700
N2564       N  0.50004618  0.85035160  0.20256158    -0.40100
N2565       N  0.44334899  0.91131172  0.18744588    -0.39900
N2566       N  0.49495320  0.97329770  0.19156093    -0.37500
N2567       N  0.53456656  0.93157108  0.31891136    -0.38600
N2568       N  0.48867161  0.86544054  0.31150210    -0.40200
C2569       C  0.31915278  0.08554773  0.07721635    -0.05200
C2570       C  0.32937614  0.08464983  0.10359939     0.09000
C2571       C  0.33984582  0.06037425  0.11377934    -0.02500
C2572       C  0.33961437  0.03691987  0.09792834    -0.00800
C2573       C  0.32833193  0.03731007  0.07168279    -0.04400
C2574       C  0.31843316  0.06204752  0.06135340     0.02600
C2575       C  0.32875797  0.10909909  0.12108604     0.09400
C2576       C  0.35084734  0.05953296  0.14080309     0.35300
C2577       C  0.30667563  0.06356295  0.03472909     0.38800
C2578       C  0.30415204  0.11835163  0.13180266    -0.04800
C2579       C  0.30387709  0.14000891  0.15003317     0.02400
C2580       C  0.32826619  0.15147703  0.15866696    -0.04400
C2581       C  0.35272546  0.14297653  0.14729535    -0.00600
C2582       C  0.35294234  0.12212400  0.12819170    -0.03200
C2583       C  0.27922353  0.10505566  0.12472173     0.36100
C2584       C  0.37770498  0.15545180  0.15562394     0.39700
C2585       C  0.27855067  0.15055685  0.15984205     0.38800
C2586       C  0.37811124  0.11364904  0.11625711     0.35800
C2587       C  0.30914167  0.11075516  0.06645992     0.36400
C2588       C  0.35162965  0.01264829  0.10881247     0.39700
N2589       N  0.25832024  0.15905763  0.16747831    -0.38400
N2590       N  0.25935752  0.09443238  0.11903336    -0.40000
N2591       N  0.39758686  0.16539215  0.16237503    -0.37700
N2592       N  0.39820383  0.10680122  0.10682978    -0.40100
N2593       N  0.35982981  0.05902007  0.16223939    -0.39900
N2594       N  0.36113743  0.99336368  0.11769071    -0.37500
N2595       N  0.29737934  0.06500237  0.01347156    -0.38600
N2596       N  0.30102506  0.13081344  0.05793475    -0.40200
C2597       C  0.34434993  0.87134456  0.14148619    -0.05200
C2598       C  0.32614390  0.86916559  0.11995581     0.09000
C2599       C  0.31029349  0.84594739  0.11710349    -0.02500
C2600       C  0.31193155  0.82519753  0.13629184    -0.00800
C2601       C  0.32923607  0.82780538  0.15875259    -0.04400
C2602       C  0.34584354  0.85083318  0.16092523     0.02600
C2603       C  0.32263611  0.89221602  0.10120425     0.09400
C2604       C  0.29177890  0.84382079  0.09471311     0.35300
C2605       C  0.36486702  0.85350089  0.18280592     0.38800
C2606       C  0.33757631  0.89354860  0.07725120    -0.04800
C2607       C  0.33634962  0.91675860  0.06106647     0.02400
C2608       C  0.31989772  0.93870683  0.06878366    -0.04400
C2609       C  0.30363933  0.93644534  0.09200654    -0.00600
C2610       C  0.30517856  0.91333589  0.10821842    -0.03200
C2611       C  0.35471397  0.87122707  0.06967668     0.36100
C2612       C  0.28511563  0.95776711  0.09924805     0.39700
C2613       C  0.35314478  0.91837248  0.03731230     0.38800
C2614       C  0.28912408  0.91136606  0.13246418     0.35800
C2615       C  0.36134209  0.89496315  0.14368896     0.36400
C2616       C  0.29487878  0.80175593  0.13333353     0.39700
N2617       N  0.36650861  0.91961616  0.01834343    -0.38400
N2618       N  0.36830421  0.85337535  0.06359929    -0.40000
N2619       N  0.27036430  0.97476578  0.10506241    -0.37700
N2620       N  0.27637832  0.90969835  0.15181706    -0.40100
N2621       N  0.27701145  0.84222022  0.07684051    -0.39900
N2622       N  0.28128819  0.78308174  0.13074186    -0.37500
N2623       N  0.38020316  0.85624470  0.20003385    -0.38600
N2624       N  0.37485924  0.91380872  0.14530681    -0.40200
C2625       C  0.65952281  0.08602847  0.73633391    -0.05200
C2626       C  0.68193967  0.08481195  0.75358624     0.09000
C2627       C  0.68692019  0.06135142  0.76859190    -0.02500
C2628       C  0.66993938  0.03887587  0.76584281    -0.00800
C2629       C  0.64861814  0.03919740  0.74690008    -0.04400
C2630       C  0.64316429  0.06319344  0.73257902     0.02600
C2631       C  0.70209527  0.10702259  0.75329277     0.09400
C2632       C  0.71035797  0.05991556  0.78585907     0.35300
C2633       C  0.62200862  0.06404205  0.71256737     0.38800
C2634       C  0.70157288  0.12750174  0.77283233    -0.04800
C2635       C  0.72005431  0.14897354  0.77144613     0.02400
C2636       C  0.73993518  0.14942511  0.75112579    -0.04400
C2637       C  0.74070429  0.12840048  0.73198131    -0.00600
C2638       C  0.72175270  0.10744277  0.73298057    -0.03200
C2639       C  0.68259416  0.12595265  0.79483722     0.36100
C2640       C  0.76077286  0.12820161  0.71096227     0.39700
C2641       C  0.71925919  0.16996041  0.79164594     0.38800
C2642       C  0.72267450  0.08586955  0.71334218     0.35800
C2643       C  0.65413268  0.11053839  0.72148277     0.36400
C2644       C  0.67459522  0.01543557  0.78259713     0.39700
N2645       N  0.71854713  0.18671640  0.80774033    -0.38400
N2646       N  0.66772744  0.12455500  0.81263116    -0.40000
N2647       N  0.77671905  0.12733321  0.69413438    -0.37700
N2648       N  0.72327647  0.06855615  0.69783524    -0.40100
N2649       N  0.72917877  0.05869266  0.79943800    -0.39900
N2650       N  0.67830383  0.99673913  0.79593121    -0.37500
N2651       N  0.60524627  0.06475640  0.69648002    -0.38600
N2652       N  0.64994445  0.13014698  0.70970221    -0.40200
C2653       C  0.65917634  0.89743279  0.75459727    -0.05200
C2654       C  0.68441880  0.89669680  0.74190087     0.09000
C2655       C  0.69251758  0.91803765  0.72518946    -0.02500
C2656       C  0.67549169  0.94026826  0.72132549    -0.00800
C2657       C  0.65055757  0.94165626  0.73487822    -0.04400
C2658       C  0.64235711  0.91997819  0.75133856     0.02600
C2659       C  0.70274620  0.87344237  0.74614313     0.09400
C2660       C  0.71874733  0.91732220  0.71254551     0.35300
C2661       C  0.61747841  0.92146555  0.76632807     0.38800
C2662       C  0.70041539  0.85054785  0.72972822    -0.04800
C2663       C  0.71853394  0.82906304  0.73270608     0.02400
C2664       C  0.73993031  0.83091444  0.75138810    -0.04400
C2665       C  0.74199724  0.85389026  0.76806062    -0.00600
C2666       C  0.72323642  0.87493945  0.76560371    -0.03200
C2667       C  0.68015822  0.84975655  0.70878727     0.36100
C2668       C  0.76334380  0.85605616  0.78777920     0.39700
C2669       C  0.71581062  0.80577916  0.71537407     0.38800
C2670       C  0.72536326  0.89855989  0.78257423     0.35800
C2671       C  0.65096288  0.87530010  0.77169411     0.36400
C2672       C  0.68366489  0.96163469  0.70324312     0.39700
N2673       N  0.71329344  0.78728025  0.70152773    -0.38400
N2674       N  0.66422846  0.84924436  0.69187419    -0.40000
N2675       N  0.78035147  0.85815912  0.80347265    -0.37700
N2676       N  0.72702327  0.91745589  0.79602156    -0.40100
N2677       N  0.73979910  0.91671037  0.70276416    -0.39900
N2678       N  0.69022335  0.97862386  0.68878892    -0.37500
N2679       N  0.59774592  0.92258257  0.77850255    -0.38600
N2680       N  0.64446594  0.85762273  0.78532578    -0.40200
C2681       C  0.84936960  0.07087494  0.89965708    -0.05200
C2682       C  0.82822062  0.08963901  0.90151103     0.09000
C2683       C  0.80764391  0.08583433  0.92059304    -0.02500
C2684       C  0.80714983  0.06231999  0.93639221    -0.00800
C2685       C  0.82800052  0.04318436  0.93409366    -0.04400
C2686       C  0.84959443  0.04805104  0.91634673     0.02600
C2687       C  0.82679423  0.11227292  0.88187456     0.09400
C2688       C  0.78650875  0.10571387  0.92323196     0.35300
C2689       C  0.87202593  0.02947797  0.91510301     0.38800
C2690       C  0.80879650  0.11084356  0.86006467    -0.04800
C2691       C  0.80938823  0.13060115  0.83981358     0.02400
C2692       C  0.82818335  0.15188983  0.84108616    -0.04400
C2693       C  0.84527397  0.15395464  0.86378618    -0.00600
C2694       C  0.84449540  0.13421872  0.88408327    -0.03200
C2695       C  0.78959879  0.08894987  0.85850903     0.36100
C2696       C  0.86393279  0.17614289  0.86643076     0.39700
C2697       C  0.78978002  0.12943900  0.81834385     0.38800
C2698       C  0.86188006  0.13641547  0.90737734     0.35800
C2699       C  0.87027984  0.07447495  0.87968112     0.36400
C2700       C  0.78414056  0.05688822  0.95338228     0.39700
N2701       N  0.77387267  0.12814073  0.80148097    -0.38400
N2702       N  0.77414719  0.07161769  0.85749456    -0.40000
N2703       N  0.87870779  0.19385181  0.86919327    -0.37700
N2704       N  0.87565686  0.13811542  0.92601787    -0.40100
N2705       N  0.76965856  0.12159167  0.92527502    -0.39900
N2706       N  0.76566484  0.05236021  0.96671134    -0.37500
N2707       N  0.88997962  0.01474938  0.91414906    -0.38600
N2708       N  0.88681808  0.07737749  0.86362824    -0.40200
C2709       C  0.81081402  0.92109521  0.88744608    -0.05200
C2710       C  0.82819794  0.89972414  0.89402486     0.09000
C2711       C  0.84387056  0.90097969  0.91754866    -0.02500
C2712       C  0.84266648  0.92385412  0.93419568    -0.00800
C2713       C  0.82506312  0.94520172  0.92786307    -0.04400
C2714       C  0.80903033  0.94367025  0.90442166     0.02600
C2715       C  0.83023670  0.87602208  0.87579885     0.09400
C2716       C  0.86144307  0.87876784  0.92438706     0.35300
C2717       C  0.79045566  0.96517747  0.89782560     0.38800
C2718       C  0.84931634  0.87582476  0.85492819    -0.04800
C2719       C  0.85016328  0.85417986  0.83668816     0.02400
C2720       C  0.83138383  0.83291866  0.83881225    -0.04400
C2721       C  0.81294544  0.83275544  0.86045242    -0.00600
C2722       C  0.81268563  0.85409138  0.87907276    -0.03200
C2723       C  0.86811988  0.89794440  0.85236422     0.36100
C2724       C  0.79345951  0.81127589  0.86312152     0.39700
C2725       C  0.87105079  0.85339471  0.81640862     0.38800
C2726       C  0.79439709  0.85357488  0.90172940     0.35800
C2727       C  0.79491785  0.91987595  0.86303929     0.36400
C2728       C  0.86090634  0.92613366  0.95673909     0.39700
N2729       N  0.88794764  0.85284640  0.80048352    -0.38400
N2730       N  0.88310550  0.91560695  0.85044317    -0.40000
N2731       N  0.77778607  0.79428372  0.86546749    -0.37700
N2732       N  0.78004163  0.85315721  0.91998727    -0.40100
N2733       N  0.87535410  0.86094997  0.92981581    -0.39900
N2734       N  0.87587208  0.92799863  0.97440028    -0.37500
N2735       N  0.77570947  0.98237079  0.89256508    -0.38600
N2736       N  0.78230885  0.91892059  0.84353415    -0.40200
C2737       C  0.34133264  0.41088789  0.09562892    -0.05200
C2738       C  0.34814385  0.38346285  0.09531507     0.09000
C2739       C  0.36024213  0.37235014  0.07232826    -0.02500
C2740       C  0.36520726  0.38846291  0.04955465    -0.00800
C2741       C  0.35587531  0.41549886  0.04850175    -0.04400
C2742       C  0.34434998  0.42671099  0.07223545     0.02600
C2743       C  0.34339970  0.36615436  0.11945099     0.09400
C2744       C  0.36765700  0.34411052  0.07220598     0.35300
C2745       C  0.33499070  0.45431557  0.07306122     0.38800
C2746       C  0.31800316  0.35431243  0.12377379    -0.04800
C2747       C  0.31450145  0.33536354  0.14459192     0.02400
C2748       C  0.33615567  0.32890133  0.16172097    -0.04400
C2749       C  0.36138893  0.34116978  0.15770609    -0.00600
C2750       C  0.36496059  0.35980336  0.13669083    -0.03200
C2751       C  0.29564572  0.36130972  0.10647285     0.36100
C2752       C  0.38424547  0.33306065  0.17382801     0.39700
C2753       C  0.28888728  0.32188533  0.14791492     0.38800
C2754       C  0.39105988  0.37190407  0.13219782     0.35800
C2755       C  0.33154378  0.42290091  0.12030940     0.36400
C2756       C  0.38118349  0.37714481  0.02799723     0.39700
N2757       N  0.26857541  0.31089499  0.15047068    -0.38400
N2758       N  0.27777503  0.36705530  0.09276723    -0.40000
N2759       N  0.40267704  0.32637114  0.18629329    -0.37700
N2760       N  0.41185746  0.38153925  0.12844291    -0.40100
N2761       N  0.37346608  0.32159127  0.07218054    -0.39900
N2762       N  0.39424914  0.36767979  0.01128367    -0.37500
N2763       N  0.32748548  0.47631404  0.07401615    -0.38600
N2764       N  0.32407394  0.43259480  0.14006415    -0.40200
C2765       C  0.35032026  0.36900369  0.85645113    -0.05200
C2766       C  0.33922940  0.36388916  0.88191704     0.09000
C2767       C  0.32454221  0.34010346  0.88638282    -0.02500
C2768       C  0.32167306  0.32099717  0.86566265    -0.00800
C2769       C  0.33393900  0.32538280  0.84031368    -0.04400
C2770       C  0.34826206  0.34967263  0.83589889     0.02600
C2771       C  0.34431319  0.38290356  0.90454597     0.09400
C2772       C  0.31244216  0.33528381  0.91245541     0.35300
C2773       C  0.36220065  0.35454773  0.81078539     0.38800
C2774       C  0.32424658  0.40110979  0.91271595    -0.04800
C2775       C  0.32852543  0.41774460  0.93520379     0.02400
C2776       C  0.35297923  0.41637143  0.94952656    -0.04400
C2777       C  0.37358769  0.39911181  0.94048352    -0.00600
C2778       C  0.36920068  0.38230501  0.91810411    -0.03200
C2779       C  0.29904663  0.40240675  0.89818416     0.36100
C2780       C  0.39951035  0.39909333  0.95372384     0.39700
C2781       C  0.30727652  0.43545229  0.94431817     0.38800
C2782       C  0.39013643  0.36412612  0.90909010     0.35800
C2783       C  0.36398543  0.39427862  0.85147972     0.36400
C2784       C  0.30581742  0.29704522  0.87064791     0.39700
N2785       N  0.29038049  0.44955359  0.95176366    -0.38400
N2786       N  0.27891497  0.40345797  0.88663174    -0.40000
N2787       N  0.42037920  0.39908423  0.96394289    -0.37700
N2788       N  0.40671746  0.34963301  0.90166051    -0.40100
N2789       N  0.30267938  0.33151270  0.93320167    -0.39900
N2790       N  0.29320776  0.27800834  0.87499555    -0.37500
N2791       N  0.37350631  0.35883157  0.79095076    -0.38600
N2792       N  0.37473592  0.41449119  0.84744658    -0.40200
C2793       C  0.19316647  0.23784827  0.14659563    -0.05200
C2794       C  0.19986156  0.22846676  0.12082055     0.09000
C2795       C  0.22651148  0.22128437  0.11487378    -0.02500
C2796       C  0.24664867  0.22370574  0.13457011    -0.00800
C2797       C  0.24035331  0.23409746  0.16047198    -0.04400
C2798       C  0.21333787  0.24150707  0.16609599     0.02600
C2799       C  0.17937512  0.22832549  0.09901395     0.09400
C2800       C  0.23320336  0.21151723  0.08820280     0.35300
C2801       C  0.20612050  0.25422301  0.19132605     0.38800
C2802       C  0.17272594  0.25265147  0.08605689    -0.04800
C2803       C  0.15556230  0.25244940  0.06364404     0.02400
C2804       C  0.14603207  0.22785108  0.05337085    -0.04400
C2805       C  0.15169792  0.20362311  0.06696363    -0.00600
C2806       C  0.16820463  0.20389161  0.08996707    -0.03200
C2807       C  0.18472751  0.27769671  0.09494170     0.36100
C2808       C  0.14133872  0.17839379  0.05673026     0.39700
C2809       C  0.14765538  0.27755904  0.05113878     0.38800
C2810       C  0.17466689  0.17901423  0.10372433     0.35800
C2811       C  0.16535429  0.24371200  0.15298249     0.36400
C2812       C  0.27367479  0.21523350  0.12767771     0.39700
N2813       N  0.14107750  0.29764846  0.04144725    -0.38400
N2814       N  0.19452384  0.29757314  0.10197734    -0.40000
N2815       N  0.13308470  0.15824656  0.04857379    -0.37700
N2816       N  0.18001674  0.15923235  0.11472528    -0.40100
N2817       N  0.23841476  0.20365252  0.06696342    -0.39900
N2818       N  0.29511830  0.20855814  0.12173254    -0.37500
N2819       N  0.20023545  0.26449551  0.21132930    -0.38600
N2820       N  0.14314717  0.24815734  0.15812969    -0.40200
C2821       C  0.16831956  0.21749975  0.91137310    -0.05200
C2822       C  0.18857827  0.23730339  0.91085951     0.09000
C2823       C  0.19038939  0.25599921  0.93203904    -0.02500
C2824       C  0.17301454  0.25400948  0.95434210    -0.00800
C2825       C  0.15319753  0.23358117  0.95541041    -0.04400
C2826       C  0.15067222  0.21562019  0.93351309     0.02600
C2827       C  0.20855076  0.23791205  0.88832990     0.09400
C2828       C  0.21004448  0.27748170  0.93071888     0.35300
C2829       C  0.13071855  0.19442166  0.93417807     0.38800
C2830       C  0.20496034  0.25550256  0.86644090    -0.04800
C2831       C  0.22334542  0.25545752  0.84484308     0.02400
C2832       C  0.24588417  0.23803769  0.84512920    -0.04400
C2833       C  0.24969334  0.22080132  0.86756075    -0.00600
C2834       C  0.23098219  0.22063497  0.88886495    -0.03200
C2835       C  0.18229241  0.27379332  0.86628030     0.36100
C2836       C  0.27248176  0.20265336  0.86871803     0.39700
C2837       C  0.21922865  0.27397894  0.82273343     0.38800
C2838       C  0.23467434  0.20248922  0.91140310     0.35800
C2839       C  0.16574240  0.19904113  0.88898220     0.36400
C2840       C  0.17549226  0.27336214  0.97597271     0.39700
N2841       N  0.21562132  0.28877585  0.80517106    -0.38400
N2842       N  0.16428036  0.28847631  0.86627668    -0.40000
N2843       N  0.29064023  0.18820327  0.87002112    -0.37700
N2844       N  0.23753859  0.18794598  0.92932096    -0.40100
N2845       N  0.22549023  0.29481074  0.92954818    -0.39900
N2846       N  0.17787186  0.28893689  0.99305574    -0.37500
N2847       N  0.11480581  0.17749043  0.93468380    -0.38600
N2848       N  0.16376591  0.18445941  0.87098673    -0.40200
C2849       C  0.80174433  0.59923307  0.07480211    -0.05200
C2850       C  0.82118736  0.59429163  0.09478024     0.09000
C2851       C  0.83901485  0.57245431  0.09196111    -0.02500
C2852       C  0.83816815  0.55626849  0.06872635    -0.00800
C2853       C  0.81892657  0.56140809  0.04837037    -0.04400
C2854       C  0.80026980  0.58259199  0.05196886     0.02600
C2855       C  0.82349080  0.61276785  0.11833842     0.09400
C2856       C  0.85859070  0.56697166  0.11285493     0.35300
C2857       C  0.77899801  0.58714801  0.03263227     0.38800
C2858       C  0.80360707  0.61278701  0.13853912    -0.04800
C2859       C  0.80503111  0.63136803  0.15985852     0.02400
C2860       C  0.82695855  0.64922447  0.16172093    -0.04400
C2861       C  0.84702441  0.64894872  0.14166359    -0.00600
C2862       C  0.84504584  0.63110529  0.11981374    -0.03200
C2863       C  0.78121882  0.59423007  0.13686755     0.36100
C2864       C  0.86971497  0.66712735  0.14332858     0.39700
C2865       C  0.78282934  0.63360052  0.17853520     0.38800
C2866       C  0.86472628  0.63221180  0.09834380     0.35800
C2867       C  0.78347441  0.62181847  0.07755243     0.36400
C2868       C  0.85803504  0.53520666  0.06539310     0.39700
N2869       N  0.76477617  0.63569610  0.19298501    -0.38400
N2870       N  0.76327066  0.57955395  0.13532958    -0.40000
N2871       N  0.88794042  0.68147996  0.14437796    -0.37700
N2872       N  0.88035402  0.63315443  0.08118074    -0.40100
N2873       N  0.87424523  0.56268926  0.12949408    -0.39900
N2874       N  0.87392750  0.51844988  0.06276675    -0.37500
N2875       N  0.76168782  0.59125113  0.01770036    -0.38600
N2876       N  0.76885491  0.63975131  0.07982480    -0.40200
C2877       C  0.81189113  0.60879083  0.85696734    -0.05200
C2878       C  0.82075017  0.61481956  0.88305382     0.09000
C2879       C  0.83156636  0.64027826  0.88883529    -0.02500
C2880       C  0.83498121  0.65932907  0.86821285    -0.00800
C2881       C  0.82562844  0.65376601  0.84178395    -0.04400
C2882       C  0.81368880  0.62828872  0.83652527     0.02600
C2883       C  0.81932252  0.59419979  0.90464687     0.09400
C2884       C  0.83868633  0.64698189  0.91631878     0.35300
C2885       C  0.80244893  0.62188979  0.81043835     0.38800
C2886       C  0.84246422  0.57934206  0.91138576    -0.04800
C2887       C  0.84240478  0.56272198  0.93424958     0.02400
C2888       C  0.81888792  0.56028611  0.94984116    -0.04400
C2889       C  0.79509376  0.57332073  0.94167706    -0.00600
C2890       C  0.79543287  0.59068946  0.91936785    -0.03200
C2891       C  0.86638616  0.58153514  0.89492849     0.36100
C2892       C  0.77011320  0.56819268  0.95566903     0.39700
C2893       C  0.86682015  0.54904121  0.94234658     0.38800
C2894       C  0.77142403  0.60535404  0.91180220     0.35800
C2895       C  0.80064212  0.58247178  0.85130477     0.36400
C2896       C  0.84867586  0.68431404  0.87450623     0.39700
N2897       N  0.88629999  0.53818117  0.94888015    -0.38400
N2898       N  0.88534691  0.58321355  0.88161949    -0.40000
N2899       N  0.74997053  0.56378618  0.96635101    -0.37700
N2900       N  0.75231179  0.61708820  0.90570430    -0.40100
N2901       N  0.84398405  0.65230783  0.93831593    -0.39900
N2902       N  0.85953243  0.70419563  0.87976253    -0.37500
N2903       N  0.79341187  0.61626587  0.78979145    -0.38600
N2904       N  0.79165891  0.56150056  0.84681947    -0.40200
C2905       C  0.93204038  0.75151818  0.11425521    -0.05200
C2906       C  0.95499222  0.73515252  0.11696485     0.09000
C2907       C  0.95892811  0.72032127  0.14076029    -0.02500
C2908       C  0.93971218  0.72130038  0.16154106    -0.00800
C2909       C  0.91651503  0.73769336  0.15895867    -0.04400
C2910       C  0.91309488  0.75313699  0.13526166     0.02600
C2911       C  0.97469184  0.73290849  0.09437851     0.09400
C2912       C  0.98275746  0.70376646  0.14367754     0.35300
C2913       C  0.89059030  0.77146286  0.13265217     0.38800
C2914       C  0.99273305  0.75412015  0.08886788    -0.04800
C2915       C  0.01020355  0.75245753  0.06662449     0.02400
C2916       C  0.01007206  0.72933589  0.05023647    -0.04400
C2917       C  0.99378703  0.70725841  0.05718678    -0.00600
C2918       C  0.97538569  0.70939782  0.07851649    -0.03200
C2919       C  0.99291788  0.77782137  0.10580472     0.36100
C2920       C  0.99715625  0.68181975  0.04341132     0.39700
C2921       C  0.02802109  0.77463292  0.06035277     0.38800
C2922       C  0.95658290  0.68773625  0.08361939     0.35800
C2923       C  0.92778954  0.76646285  0.08958346     0.36400
C2924       C  0.94358691  0.70447327  0.18502337     0.39700
N2925       N  0.04237434  0.79222134  0.05536534    -0.38400
N2926       N  0.99298546  0.79675285  0.11930136    -0.40000
N2927       N  0.00040445  0.66124710  0.03307954    -0.37700
N2928       N  0.94144509  0.67055113  0.08757267    -0.40100
N2929       N  0.00173076  0.69052383  0.14586919    -0.39900
N2930       N  0.94708677  0.69088130  0.20355486    -0.37500
N2931       N  0.87276826  0.78621211  0.13041364    -0.38600
N2932       N  0.92449017  0.77834070  0.06986985    -0.40200
C2933       C  0.99746414  0.75174883  0.90853479    -0.05200
C2934       C  0.97495734  0.73490247  0.90548335     0.09000
C2935       C  0.96898938  0.71558463  0.92523881    -0.02500
C2936       C  0.98539915  0.71314366  0.94813919    -0.00800
C2937       C  0.00762410  0.73051639  0.95181178    -0.04400
C2938       C  0.01352943  0.74990231  0.93182048     0.02600
C2939       C  0.95667248  0.73811522  0.88198139     0.09400
C2940       C  0.94553815  0.69852411  0.92215317     0.35300
C2941       C  0.03492359  0.76921140  0.93589318     0.38800
C2942       C  0.95948827  0.72134005  0.85938705    -0.04800
C2943       C  0.94087992  0.72294547  0.83810918     0.02400
C2944       C  0.91912707  0.74124901  0.83949240    -0.04400
C2945       C  0.91715653  0.75886817  0.86171748    -0.00600
C2946       C  0.93572808  0.75710716  0.88297081    -0.03200
C2947       C  0.98126993  0.70199645  0.85839488     0.36100
C2948       C  0.89655036  0.77944823  0.86248461     0.39700
C2949       C  0.94400383  0.70519138  0.81525170     0.38800
C2950       C  0.93303386  0.77451062  0.90619468     0.35800
C2951       C  0.00368452  0.77130766  0.88784162     0.36400
C2952       C  0.97927130  0.69242845  0.96763221     0.39700
N2953       N  0.94714015  0.69098798  0.79713987    -0.38400
N2954       N  0.99860222  0.68652907  0.85766242    -0.40000
N2955       N  0.88031782  0.79605103  0.86329543    -0.37700
N2956       N  0.93087304  0.78835051  0.92474330    -0.40100
N2957       N  0.92678363  0.68502863  0.91968374    -0.39900
N2958       N  0.97373630  0.67564654  0.98270773    -0.37500
N2959       N  0.05172439  0.78492688  0.93912888    -0.38600
N2960       N  0.00854597  0.78681702  0.87121814    -0.40200
C2961       C  0.47100159  0.06886523  0.71179019    -0.05200
C2962       C  0.47903849  0.08867341  0.73030951     0.09000
C2963       C  0.50255100  0.08501144  0.74553211    -0.02500
C2964       C  0.51720252  0.06082684  0.74347210    -0.00800
C2965       C  0.50891364  0.04040359  0.72529612    -0.04400
C2966       C  0.48586275  0.04489530  0.70916060     0.02600
C2967       C  0.46120142  0.11224746  0.73528340     0.09400
C2968       C  0.51138057  0.10610865  0.76361294     0.35300
C2969       C  0.47714544  0.02510521  0.68967844     0.38800
C2970       C  0.44280525  0.11149127  0.75679339    -0.04800
C2971       C  0.42356323  0.13199002  0.75973415     0.02400
C2972       C  0.42200581  0.15291045  0.74062748    -0.04400
C2973       C  0.44132083  0.15430068  0.71979062    -0.00600
C2974       C  0.46110064  0.13418676  0.71740461    -0.03200
C2975       C  0.44341202  0.08928632  0.77565716     0.36100
C2976       C  0.44047009  0.17579472  0.70015208     0.39700
C2977       C  0.40614934  0.13214362  0.78308529     0.38800
C2978       C  0.48122520  0.13585428  0.69640900     0.35800
C2979       C  0.44700970  0.07311110  0.69573871     0.36400
C2980       C  0.53975404  0.05654009  0.76142902     0.39700
N2981       N  0.39256291  0.13244611  0.80192145    -0.38400
N2982       N  0.44392376  0.07155263  0.79068472    -0.40000
N2983       N  0.44021459  0.19277769  0.68429486    -0.37700
N2984       N  0.49734936  0.13734582  0.67975175    -0.40100
N2985       N  0.51844170  0.12303023  0.77790742    -0.39900
N2986       N  0.55763495  0.05314347  0.77588789    -0.37500
N2987       N  0.46957564  0.00968778  0.67403001    -0.38600
N2988       N  0.42790116  0.07676238  0.68302193    -0.40200
C2989       C  0.49271601  0.90213219  0.74849497    -0.05200
C2990       C  0.47430861  0.89614014  0.72776415     0.09000
C2991       C  0.47444633  0.91174930  0.70402559    -0.02500
C2992       C  0.49219639  0.93373217  0.70156557    -0.00800
C2993       C  0.50863319  0.94124923  0.72339480    -0.04400
C2994       C  0.50931180  0.92498689  0.74663122     0.02600
C2995       C  0.45421306  0.87401777  0.73164243     0.09400
C2996       C  0.45597206  0.90557792  0.68237485     0.35300
C2997       C  0.52614198  0.93242111  0.76920183     0.38800
C2998       C  0.43328831  0.87711622  0.75054133    -0.04800
C2999       C  0.41504104  0.85596380  0.75534859     0.02400
C3000       C  0.41717957  0.83155347  0.74088042    -0.04400
C3001       C  0.43811381  0.82863824  0.72177154    -0.00600
C3002       C  0.45658453  0.84968454  0.71734531    -0.03200
C3003       C  0.43060419  0.90220943  0.76515437     0.36100
C3004       C  0.44018879  0.80456669  0.70553911     0.39700
C3005       C  0.39448809  0.85923692  0.77574413     0.38800
C3006       C  0.47807022  0.84629644  0.69795076     0.35800
C3007       C  0.49414537  0.88497588  0.77202497     0.36400
C3008       C  0.49444881  0.94788245  0.67620994     0.39700
N3009       N  0.37814223  0.86193411  0.79203212    -0.38400
N3010       N  0.42866202  0.92219597  0.77687457    -0.40000
N3011       N  0.44243515  0.78564641  0.69225593    -0.37700
N3012       N  0.49504781  0.84359322  0.68232799    -0.40100
N3013       N  0.44129134  0.90064727  0.66504590    -0.39900
N3014       N  0.49669677  0.95870949  0.65576061    -0.37500
N3015       N  0.53936613  0.93842350  0.78734073    -0.38600
N3016       N  0.49516263  0.87121877  0.79074043    -0.40200
C3017       C  0.35507537  0.06705980  0.89590652    -0.05200
C3018       C  0.33232525  0.08384422  0.89435567     0.09000
C3019       C  0.31043068  0.07975366  0.91185217    -0.02500
C3020       C  0.31048271  0.05758675  0.92942100    -0.00800
C3021       C  0.33316466  0.04067480  0.93063227    -0.04400
C3022       C  0.35609493  0.04659951  0.91523881     0.02600
C3023       C  0.33175212  0.10591830  0.87427913     0.09400
C3024       C  0.28771394  0.09797234  0.91127276     0.35300
C3025       C  0.38110970  0.03260214  0.92031005     0.38800
C3026       C  0.31642273  0.10316490  0.85066200    -0.04800
C3027       C  0.31713936  0.12340971  0.83093902     0.02400
C3028       C  0.33369934  0.14630329  0.83460376    -0.04400
C3029       C  0.34945598  0.14860998  0.85813061    -0.00600
C3030       C  0.34792560  0.12879466  0.87817605    -0.03200
C3031       C  0.30001753  0.07937182  0.84666374     0.36100
C3032       C  0.36832268  0.17060993  0.86124151     0.39700
C3033       C  0.30044193  0.12062913  0.80719223     0.38800
C3034       C  0.36303174  0.13184034  0.90292005     0.35800
C3035       C  0.37684701  0.07003841  0.87678179     0.36400
C3036       C  0.28692612  0.05160101  0.94543867     0.39700
N3037       N  0.28711412  0.11801968  0.78832820    -0.38400
N3038       N  0.28689469  0.06043063  0.84357726    -0.40000
N3039       N  0.38358633  0.18795399  0.86374547    -0.37700
N3040       N  0.37497108  0.13419335  0.92272104    -0.40100
N3041       N  0.26963930  0.11257535  0.91081682    -0.39900
N3042       N  0.26810996  0.04671842  0.95815104    -0.37500
N3043       N  0.40134445  0.02212852  0.92487738    -0.38600
N3044       N  0.39395247  0.07217964  0.86121300    -0.40200
C3045       C  0.30806803  0.87391106  0.85211047    -0.05200
C3046       C  0.32493575  0.87313675  0.87478711     0.09000
C3047       C  0.34173813  0.85082035  0.87923420    -0.02500
C3048       C  0.34255244  0.82969210  0.86042385    -0.00800
C3049       C  0.32597900  0.83055805  0.83730461    -0.04400
C3050       C  0.30835177  0.85260418  0.83353800     0.02600
C3051       C  0.32657875  0.89686861  0.89291288     0.09400
C3052       C  0.35855559  0.84997622  0.90302026     0.35300
C3053       C  0.29013909  0.85341547  0.81078644     0.38800
C3054       C  0.30931144  0.89920555  0.91515715    -0.04800
C3055       C  0.31067914  0.92206056  0.93187190     0.02400
C3056       C  0.32952623  0.94269411  0.92640437    -0.04400
C3057       C  0.34701879  0.93993150  0.90408646    -0.00600
C3058       C  0.34549361  0.91711825  0.88748320    -0.03200
C3059       C  0.28995869  0.87812056  0.92056567     0.36100
C3060       C  0.36700837  0.96019127  0.89801154     0.39700
C3061       C  0.29179137  0.92473309  0.95386904     0.38800
C3062       C  0.36340969  0.91441008  0.86461508     0.35800
C3063       C  0.29067422  0.89690110  0.84771786     0.36400
C3064       C  0.36148568  0.80787507  0.86434747     0.39700
N3065       N  0.27666929  0.92680674  0.97138312    -0.38400
N3066       N  0.27457242  0.86122233  0.92477859    -0.40000
N3067       N  0.38313378  0.97590539  0.89233910    -0.37700
N3068       N  0.37768644  0.91220791  0.84641880    -0.40100
N3069       N  0.37183303  0.84940685  0.92208867    -0.39900
N3070       N  0.37671616  0.79062412  0.86764943    -0.37500
N3071       N  0.27553615  0.85436858  0.79273373    -0.38600
N3072       N  0.27679185  0.91520295  0.84413130    -0.40200
C3073       C  0.69206797  0.06069950  0.28469698    -0.05200
C3074       C  0.68811765  0.08051315  0.26483586     0.09000
C3075       C  0.66601928  0.07861370  0.24724489    -0.02500
C3076       C  0.64873578  0.05621550  0.24846741    -0.00800
C3077       C  0.65305718  0.03588478  0.26785890    -0.04400
C3078       C  0.67441450  0.03861045  0.28642997     0.02600
C3079       C  0.70749347  0.10327226  0.26200004     0.09400
C3080       C  0.66130957  0.09970413  0.22768023     0.35300
C3081       C  0.67798427  0.01890960  0.30763839     0.38800
C3082       C  0.72833726  0.10177619  0.24293894    -0.04800
C3083       C  0.74616727  0.12353297  0.23958119     0.02400
C3084       C  0.74343796  0.14700704  0.25549397    -0.04400
C3085       C  0.72228179  0.14840139  0.27451973    -0.00600
C3086       C  0.70448948  0.12657173  0.27774637    -0.03200
C3087       C  0.73142549  0.07770105  0.22677356     0.36100
C3088       C  0.71904653  0.17184024  0.29150359     0.39700
C3089       C  0.76683922  0.12180901  0.21915357     0.38800
C3090       C  0.68307478  0.12789568  0.29744683     0.35800
C3091       C  0.71449585  0.06295442  0.30314719     0.36400
C3092       C  0.62744485  0.05350855  0.22878376     0.39700
N3093       N  0.78320966  0.12007179  0.20277876    -0.38400
N3094       N  0.73390782  0.05850563  0.21389040    -0.40000
N3095       N  0.71597545  0.19037543  0.30518240    -0.37700
N3096       N  0.66600983  0.12879082  0.31317856    -0.40100
N3097       N  0.65758991  0.11666168  0.21221093    -0.39900
N3098       N  0.61054758  0.05132974  0.21298289    -0.37500
N3099       N  0.68069780  0.00322598  0.32459539    -0.38600
N3100       N  0.73238616  0.06476651  0.31786738    -0.40200
C3101       C  0.69132402  0.91357318  0.24970209    -0.05200
C3102       C  0.68258054  0.89043696  0.26363106     0.09000
C3103       C  0.65775854  0.89099525  0.27734865    -0.02500
C3104       C  0.64253143  0.91494357  0.27819167    -0.00800
C3105       C  0.65076085  0.93764896  0.26316915    -0.04400
C3106       C  0.67461607  0.93622936  0.24785046     0.02600
C3107       C  0.69937055  0.86547326  0.26256031     0.09400
C3108       C  0.64786571  0.86698063  0.29055129     0.35300
C3109       C  0.68140813  0.95742793  0.22898179     0.38800
C3110       C  0.71250218  0.85566367  0.28579457    -0.04800
C3111       C  0.73114581  0.83444896  0.28360792     0.02400
C3112       C  0.73792294  0.82418781  0.25809483    -0.04400
C3113       C  0.72456532  0.83358289  0.23501797    -0.00600
C3114       C  0.70441383  0.85321769  0.23742328    -0.03200
C3115       C  0.70748290  0.86777164  0.31180338     0.36100
C3116       C  0.73240535  0.82395930  0.20866309     0.39700
C3117       C  0.74375555  0.82346148  0.30751030     0.38800
C3118       C  0.68920434  0.86128495  0.21389207     0.35800
C3119       C  0.71782322  0.91428052  0.23756396     0.36400
C3120       C  0.61910225  0.91644727  0.29539631     0.39700
N3121       N  0.75374806  0.81457554  0.32653519    -0.38400
N3122       N  0.70340313  0.87719918  0.33265420    -0.40000
N3123       N  0.73878956  0.81652302  0.18759662    -0.37700
N3124       N  0.67702225  0.86773852  0.19517521    -0.40100
N3125       N  0.63998749  0.84783225  0.30112793    -0.39900
N3126       N  0.60056709  0.91775217  0.30933412    -0.37500
N3127       N  0.68659103  0.97407002  0.21359106    -0.38600
N3128       N  0.73901086  0.91489496  0.22807017    -0.40200
C3129       C  0.83371379  0.07817397  0.08604170    -0.05200
C3130       C  0.81419143  0.08337649  0.10585511     0.09000
C3131       C  0.79205294  0.06600148  0.10871419    -0.02500
C3132       C  0.78950581  0.04336990  0.09190698    -0.00800
C3133       C  0.80983029  0.03715427  0.07311362    -0.04400
C3134       C  0.83183667  0.05490003  0.07003148     0.02600
C3135       C  0.81746835  0.10668849  0.12441765     0.09400
C3136       C  0.77203074  0.07134402  0.12921103     0.35300
C3137       C  0.85307551  0.04888220  0.05102095     0.38800
C3138       C  0.80159857  0.12992707  0.12124014    -0.04800
C3139       C  0.80420857  0.15153467  0.13939502     0.02400
C3140       C  0.82329530  0.15026796  0.16048130    -0.04400
C3141       C  0.83968823  0.12710913  0.16302332    -0.00600
C3142       C  0.83623630  0.10519674  0.14552191    -0.03200
C3143       C  0.78205488  0.13121348  0.09964316     0.36100
C3144       C  0.86060094  0.12581529  0.18330057     0.39700
C3145       C  0.78626388  0.17432990  0.13689405     0.38800
C3146       C  0.85140885  0.08064851  0.14975633     0.35800
C3147       C  0.85586480  0.09674245  0.08234841     0.36400
C3148       C  0.76509689  0.02766357  0.09296267     0.39700
N3149       N  0.77165496  0.19223545  0.13446561    -0.38400
N3150       N  0.76636320  0.13206632  0.08251662    -0.40000
N3151       N  0.87738323  0.12459888  0.19932713    -0.37700
N3152       N  0.86332160  0.06099424  0.15327745    -0.40100
N3153       N  0.75614813  0.07571939  0.14559102    -0.39900
N3154       N  0.74495295  0.01617673  0.09391328    -0.37500
N3155       N  0.87001472  0.04409567  0.03586074    -0.38600
N3156       N  0.87346976  0.11162234  0.07941660    -0.40200
C3157       C  0.80242499  0.84605224  0.12017718    -0.05200
C3158       C  0.81970807  0.86846947  0.12146294     0.09000
C3159       C  0.83976913  0.86956553  0.14142420    -0.02500
C3160       C  0.84195419  0.84882722  0.16058750    -0.00800
C3161       C  0.82385495  0.82690683  0.16016935    -0.04400
C3162       C  0.80426145  0.82547323  0.13960575     0.02600
C3163       C  0.81580539  0.89177722  0.10285709     0.09400
C3164       C  0.85806594  0.89224956  0.14236265     0.35300
C3165       C  0.78512357  0.80352430  0.13898827     0.38800
C3166       C  0.79414287  0.90954908  0.10694117    -0.04800
C3167       C  0.79076481  0.93202760  0.09006395     0.02400
C3168       C  0.81029714  0.93832081  0.07047198    -0.04400
C3169       C  0.83207096  0.92046860  0.06647027    -0.00600
C3170       C  0.83427387  0.89683707  0.08200705    -0.03200
C3171       C  0.77583670  0.90522301  0.12920620     0.36100
C3172       C  0.85326904  0.92719099  0.04773576     0.39700
C3173       C  0.76643652  0.94776746  0.09219649     0.38800
C3174       C  0.85597791  0.87803412  0.07709648     0.35800
C3175       C  0.78263218  0.84431037  0.09886130     0.36400
C3176       C  0.86326687  0.84998447  0.18038216     0.39700
N3177       N  0.74638162  0.95931364  0.09398580    -0.38400
N3178       N  0.76143174  0.90188861  0.14712661    -0.40000
N3179       N  0.87046677  0.93268510  0.03314477    -0.37700
N3180       N  0.87326870  0.86299133  0.07324803    -0.40100
N3181       N  0.87275273  0.91025627  0.14292693    -0.39900
N3182       N  0.88045661  0.85131158  0.19594120    -0.37500
N3183       N  0.76965780  0.78619623  0.13829483    -0.38600
N3184       N  0.76690512  0.84293804  0.08180391    -0.40200
C3185       C  0.84051264  0.34480605  0.11476253    -0.05200
C3186       C  0.82514344  0.36836987  0.11748160     0.09000
C3187       C  0.81010717  0.37274921  0.14101856    -0.02500
C3188       C  0.81017784  0.35338818  0.16179415    -0.00800
C3189       C  0.82544253  0.32944409  0.15911894    -0.04400
C3190       C  0.84056167  0.32533457  0.13527811     0.02600
C3191       C  0.82468131  0.38814731  0.09493961     0.09400
C3192       C  0.79454060  0.39722560  0.14372750     0.35300
C3193       C  0.85650611  0.30124531  0.13147946     0.38800
C3194       C  0.80526387  0.38568405  0.07445928    -0.04800
C3195       C  0.80720417  0.40155741  0.05112179     0.02400
C3196       C  0.82877141  0.41970305  0.04804777    -0.04400
C3197       C  0.84773427  0.42276024  0.06888992    -0.00600
C3198       C  0.84547432  0.40722413  0.09245977    -0.03200
C3199       C  0.78365814  0.36634307  0.07717796     0.36100
C3200       C  0.87042527  0.44067829  0.06542981     0.39700
C3201       C  0.78697108  0.39929727  0.03025342     0.38800
C3202       C  0.86485837  0.41031465  0.11397500     0.35800
C3203       C  0.85646767  0.34071783  0.09067662     0.36400
C3204       C  0.79360424  0.35777049  0.18534185     0.39700
N3205       N  0.77089878  0.39764389  0.01354392    -0.38400
N3206       N  0.76640695  0.35092554  0.07933666    -0.40000
N3207       N  0.88868845  0.45475281  0.06257163    -0.37700
N3208       N  0.88019262  0.41278312  0.13126388    -0.40100
N3209       N  0.78217954  0.41680326  0.14583331    -0.39900
N3210       N  0.78033644  0.36133698  0.20408088    -0.37500
N3211       N  0.86915548  0.28213869  0.12762749    -0.38600
N3212       N  0.86924593  0.33764163  0.07151760    -0.40200
C3213       C  0.85695242  0.38358051  0.92371019    -0.05200
C3214       C  0.83844886  0.38871790  0.90291418     0.09000
C3215       C  0.82057425  0.41056382  0.90498210    -0.02500
C3216       C  0.81987056  0.42612409  0.92862844    -0.00800
C3217       C  0.83794004  0.42060576  0.94989963    -0.04400
C3218       C  0.85696968  0.39967773  0.94699214     0.02600
C3219       C  0.83589118  0.36930660  0.88021879     0.09400
C3220       C  0.80239414  0.41649054  0.88299300     0.35300
C3221       C  0.87652094  0.39451805  0.96798165     0.38800
C3222       C  0.81686860  0.34841759  0.88191323    -0.04800
C3223       C  0.81497075  0.32916735  0.86128418     0.02400
C3224       C  0.83261228  0.33024533  0.83906337    -0.04400
C3225       C  0.85161471  0.35137197  0.83737622    -0.00600
C3226       C  0.85301210  0.37099302  0.85778941    -0.03200
C3227       C  0.79955202  0.34650030  0.90527242     0.36100
C3228       C  0.87070424  0.35233004  0.81543901     0.39700
C3229       C  0.79440861  0.30860965  0.86283025     0.38800
C3230       C  0.87231409  0.39274426  0.85600772     0.35800
C3231       C  0.87535321  0.36108079  0.92144185     0.36400
C3232       C  0.79913232  0.44635946  0.93177778     0.39700
N3233       N  0.77787203  0.29237178  0.86434597    -0.38400
N3234       N  0.78587441  0.34499337  0.92398866    -0.40000
N3235       N  0.88623641  0.35331881  0.79821243    -0.37700
N3236       N  0.88766635  0.41013793  0.85461848    -0.40100
N3237       N  0.78799945  0.42129720  0.86538558    -0.39900
N3238       N  0.78243130  0.46230591  0.93444192    -0.37500
N3239       N  0.89210783  0.39033919  0.98471324    -0.38600
N3240       N  0.88990444  0.34305122  0.91953506    -0.40200
C3241       C  0.95052364  0.26078075  0.12928357    -0.05200
C3242       C  0.95017427  0.23862459  0.11153084     0.09000
C3243       C  0.93071999  0.21833780  0.11486189    -0.02500
C3244       C  0.91264617  0.21939551  0.13658000    -0.00800
C3245       C  0.91313489  0.24134401  0.15462694    -0.04400
C3246       C  0.93189911  0.26226264  0.15065424     0.02600
C3247       C  0.96956691  0.23695345  0.08857431     0.09400
C3248       C  0.92877229  0.19676424  0.09535161     0.35300
C3249       C  0.93115806  0.28587927  0.16772968     0.38800
C3250       C  0.99229670  0.22007227  0.09017659    -0.04800
C3251       C  0.00970537  0.21733875  0.06791585     0.02400
C3252       C  0.00440748  0.23141239  0.04374247    -0.04400
C3253       C  0.98165833  0.24854324  0.04240875    -0.00600
C3254       C  0.96426555  0.25105264  0.06461962    -0.03200
C3255       C  0.99722619  0.20481976  0.11452409     0.36100
C3256       C  0.97615103  0.26402074  0.01831743     0.39700
C3257       C  0.03232446  0.19904825  0.06961220     0.38800
C3258       C  0.94028712  0.26750190  0.06261396     0.35800
C3259       C  0.96960995  0.28235642  0.12508181     0.36400
C3260       C  0.89408244  0.19735414  0.14072925     0.39700
N3261       N  0.05036424  0.18445141  0.07098193    -0.38400
N3262       N  0.00100854  0.19250626  0.13388226    -0.40000
N3263       N  0.97167091  0.27633288  0.99910587    -0.37700
N3264       N  0.92105047  0.28045387  0.06111734    -0.40100
N3265       N  0.92701358  0.17975010  0.07960750    -0.39900
N3266       N  0.87949397  0.17956579  0.14390535    -0.37500
N3267       N  0.93033791  0.30480784  0.18121450    -0.38600
N3268       N  0.98472738  0.29965970  0.12159226    -0.40200
C3269       C  0.95466266  0.20509735  0.85765627    -0.05200
C3270       C  0.96033757  0.22600804  0.87597445     0.09000
C3271       C  0.94627260  0.25062791  0.87394338    -0.02500
C3272       C  0.92663580  0.25422102  0.85385478    -0.00800
C3273       C  0.92021653  0.23290138  0.83634715    -0.04400
C3274       C  0.93391272  0.20815532  0.83864820     0.02600
C3275       C  0.97931152  0.22147898  0.89891397     0.09400
C3276       C  0.95165274  0.27210461  0.89290290     0.35300
C3277       C  0.92495115  0.18506632  0.82329043     0.38800
C3278       C  0.00383622  0.23562061  0.90033367    -0.04800
C3279       C  0.01959427  0.23453957  0.92389437     0.02400
C3280       C  0.01113626  0.21880374  0.94605193    -0.04400
C3281       C  0.98773246  0.20285559  0.94359758    -0.00600
C3282       C  0.97167805  0.20455908  0.92036091    -0.03200
C3283       C  0.01225347  0.25221093  0.87790047     0.36100
C3284       C  0.98000596  0.18464042  0.96503190     0.39700
C3285       C  0.04357235  0.25097876  0.92574558     0.38800
C3286       C  0.94661863  0.18974730  0.91903132     0.35800
C3287       C  0.96997247  0.18031416  0.85858464     0.36400
C3288       C  0.91284131  0.27978074  0.85135062     0.39700
N3289       N  0.06268481  0.26411737  0.92720448    -0.38400
N3290       N  0.01884087  0.26560877  0.86008380    -0.40000
N3291       N  0.97383096  0.17010687  0.98209639    -0.37700
N3292       N  0.92666129  0.17791353  0.91790462    -0.40100
N3293       N  0.95613059  0.28919810  0.90801198    -0.39900
N3294       N  0.90188458  0.30019238  0.84936024    -0.37500
N3295       N  0.91736108  0.16639219  0.81171253    -0.38600
N3296       N  0.98223104  0.16056605  0.85919438    -0.40200
C3297       C  0.31464642  0.59093670  0.07578700    -0.05200
C3298       C  0.33553376  0.59024570  0.09494545     0.09000
C3299       C  0.35681044  0.57174964  0.09168910    -0.02500
C3300       C  0.35775330  0.55483544  0.06889398    -0.00800
C3301       C  0.33739516  0.55630902  0.04912797    -0.04400
C3302       C  0.31553658  0.57404653  0.05302036     0.02600
C3303       C  0.33584716  0.61014674  0.11766172     0.09400
C3304       C  0.37815263  0.57068813  0.11148074     0.35300
C3305       C  0.29386525  0.57496487  0.03356164     0.38800
C3306       C  0.31868442  0.60689475  0.13996610    -0.04800
C3307       C  0.31821945  0.62630394  0.16070421     0.02400
C3308       C  0.33513108  0.64916458  0.15947769    -0.04400
C3309       C  0.35250534  0.65221039  0.13709377    -0.00600
C3310       C  0.35264193  0.63293266  0.11625970    -0.03200
C3311       C  0.30095143  0.58382408  0.14120106     0.36100
C3312       C  0.37081215  0.67482606  0.13553575     0.39700
C3313       C  0.29928060  0.62328750  0.18261383     0.38800
C3314       C  0.36964171  0.63683710  0.09290413     0.35800
C3315       C  0.29255057  0.60962210  0.07918944     0.36400
C3316       C  0.38051395  0.53705574  0.06506628     0.39700
N3317       N  0.28408473  0.62084288  0.20001098    -0.38400
N3318       N  0.28664351  0.56552989  0.14206403    -0.40000
N3319       N  0.38560047  0.69267586  0.13390666    -0.37700
N3320       N  0.38308330  0.63988683  0.07419911    -0.40100
N3321       N  0.39525259  0.56991014  0.12720136    -0.39900
N3322       N  0.39865875  0.52288258  0.06189855    -0.37500
N3323       N  0.27658742  0.57572191  0.01803443    -0.38600
N3324       N  0.27492587  0.62449755  0.08205212    -0.40200
C3325       C  0.31664075  0.63099206  0.88212347    -0.05200
C3326       C  0.33721913  0.61154967  0.88176209     0.09000
C3327       C  0.35522344  0.61070001  0.85997739    -0.02500
C3328       C  0.35291603  0.62946032  0.83879557    -0.00800
C3329       C  0.33332228  0.65012351  0.83987871    -0.04400
C3330       C  0.31502053  0.65055709  0.86162929     0.02600
C3331       C  0.34040305  0.59259701  0.90494177     0.09400
C3332       C  0.37641322  0.59069680  0.85963802     0.35300
C3333       C  0.29404300  0.67070801  0.86277994     0.38800
C3334       C  0.32722899  0.56751480  0.90497958    -0.04800
C3335       C  0.32894298  0.55046230  0.92764334     0.02400
C3336       C  0.34340694  0.55872832  0.95071557    -0.04400
C3337       C  0.35752173  0.58345464  0.95005559    -0.00600
C3338       C  0.35604701  0.60021627  0.92726698    -0.03200
C3339       C  0.31141129  0.55960775  0.88182929     0.36100
C3340       C  0.37412128  0.59151857  0.97264001     0.39700
C3341       C  0.31510971  0.52485376  0.92730437     0.38800
C3342       C  0.37053233  0.62550427  0.92681267     0.35800
C3343       C  0.29694820  0.63059015  0.90357362     0.36400
C3344       C  0.37126312  0.62766829  0.81629547     0.39700
N3345       N  0.30411871  0.50438703  0.92666133    -0.38400
N3346       N  0.29875476  0.55342763  0.86333944    -0.40000
N3347       N  0.38726698  0.59784751  0.99073807    -0.37700
N3348       N  0.38215763  0.64563116  0.92645206    -0.40100
N3349       N  0.39337529  0.57480603  0.85945253    -0.39900
N3350       N  0.38592915  0.62565955  0.79841141    -0.37500
N3351       N  0.27722595  0.68668507  0.86405821    -0.38600
N3352       N  0.28114387  0.62995841  0.92058428    -0.40200
C3353       C  0.22738326  0.71693477  0.11456536    -0.05200
C3354       C  0.20416519  0.73298910  0.11617368     0.09000
C3355       C  0.19939155  0.74879156  0.13912010    -0.02500
C3356       C  0.21807428  0.74894913  0.16036612    -0.00800
C3357       C  0.24172582  0.73318796  0.15869788    -0.04400
C3358       C  0.24606841  0.71689731  0.13575869     0.02600
C3359       C  0.18518923  0.73386388  0.09309410     0.09400
C3360       C  0.17548933  0.76539456  0.14049008     0.35300
C3361       C  0.26949366  0.69966762  0.13388265     0.38800
C3362       C  0.16272855  0.71667918  0.09250709    -0.04800
C3363       C  0.14580723  0.71627608  0.06983503     0.02400
C3364       C  0.15173839  0.73262235  0.04737309    -0.04400
C3365       C  0.17393193  0.75039923  0.04838625    -0.00600
C3366       C  0.19040205  0.75119288  0.07134745    -0.03200
C3367       C  0.15753349  0.69888255  0.11498520     0.36100
C3368       C  0.17984333  0.76804641  0.02592866     0.39700
C3369       C  0.12303388  0.69812617  0.06922308     0.38800
C3370       C  0.21292633  0.76966529  0.07264088     0.35800
C3371       C  0.23216144  0.70065456  0.09084437     0.36400
C3372       C  0.21327126  0.76625661  0.18332079     0.39700
N3373       N  0.10478026  0.68375723  0.06869146    -0.38400
N3374       N  0.15346555  0.68464352  0.13290446    -0.40000
N3375       N  0.18471746  0.78204838  0.00801668    -0.37700
N3376       N  0.23085353  0.78440355  0.07386279    -0.40100
N3377       N  0.15643228  0.77864909  0.14152398    -0.39900
N3378       N  0.20914833  0.78009112  0.20153598    -0.37500
N3379       N  0.28807806  0.68586464  0.13195131    -0.38600
N3380       N  0.23603697  0.68773489  0.07191437    -0.40200
C3381       C  0.19998563  0.71666944  0.85835745    -0.05200
C3382       C  0.20414988  0.72990004  0.88294997     0.09000
C3383       C  0.22690791  0.74624665  0.88663523    -0.02500
C3384       C  0.24544684  0.74969246  0.86558132    -0.00800
C3385       C  0.24156552  0.73629260  0.84070879    -0.04400
C3386       C  0.21858701  0.71974236  0.83728074     0.02600
C3387       C  0.18444855  0.72676960  0.90517775     0.09400
C3388       C  0.23134902  0.75922622  0.91237642     0.35300
C3389       C  0.21428960  0.70489170  0.81258964     0.38800
C3390       C  0.18666353  0.70494852  0.92310004    -0.04800
C3391       C  0.16937084  0.70322697  0.94539255     0.02400
C3392       C  0.14998864  0.72347601  0.94985579    -0.04400
C3393       C  0.14730366  0.74485061  0.93141189    -0.00600
C3394       C  0.16443518  0.74640785  0.90903024    -0.03200
C3395       C  0.20735255  0.68483519  0.91899759     0.36100
C3396       C  0.12828479  0.76632003  0.93650973     0.39700
C3397       C  0.17169179  0.68077701  0.96385464     0.38800
C3398       C  0.16221063  0.76878572  0.89048333     0.35800
C3399       C  0.17669712  0.69945441  0.85503675     0.36400
C3400       C  0.26820274  0.76745512  0.86964400     0.39700
N3401       N  0.17357975  0.66282191  0.97851616    -0.38400
N3402       N  0.22394709  0.66891326  0.91563075    -0.40000
N3403       N  0.11328218  0.78353899  0.94078530    -0.37700
N3404       N  0.16048701  0.78669192  0.87575011    -0.40100
N3405       N  0.23482315  0.76942079  0.93297707    -0.39900
N3406       N  0.28630301  0.78159897  0.87316541    -0.37500
N3407       N  0.21038343  0.69291727  0.79306121    -0.38600
N3408       N  0.15816645  0.68565698  0.85255572    -0.40200
loop_ 
_geom_bond_atom_site_label_1 
_geom_bond_atom_site_label_2 
_geom_bond_distance 
_geom_bond_site_symmetry_2 
_ccdc_geom_bond_type 
C1            N2   1.358       .  A
C1            N6   1.353       .  A
C1         C3392   1.475       .  S
N2            C3   1.359       .  A
C3            N4   1.360   1_556  A
C3           C53   1.469       .  S
N4            C5   1.359       .  A
C5            N6   1.354   1_554  A
C5         C3364   1.482       .  S
C7            N8   1.356   1_554  A
C7           N12   1.359       .  A
C7         C3301   1.491       .  S
N8            C9   1.358       .  A
C9           N10   1.360       .  A
C9         C3336   1.493       .  S
N10          C11   1.362       .  A
C11          N12   1.362   1_556  A
C11          C71   1.473       .  S
C13          N14   1.361       .  A
C13          N18   1.356   1_554  A
C13        C3252   1.496       .  S
N14          C15   1.363   1_554  A
C15          N16   1.359       .  A
C15          C63   1.472   1_556  S
N16          C17   1.359       .  A
C17          N18   1.357       .  A
C17        C3280   1.490       .  S
C19          N20   1.357       .  A
C19          N24   1.358       .  A
C19        C3217   1.486       .  S
N20          C21   1.357   1_556  A
C21          N22   1.356       .  A
C21        C3196   1.477       .  S
N22          C23   1.357   1_554  A
C23          N24   1.359       .  A
C23          C57   1.465       .  S
C25          N26   1.359   1_545  A
C25          N30   1.356       .  A
C25        C3133   1.485       .  S
N26          C27   1.361       .  A
C27          N28   1.362       .  A
C27        C3168   1.490       .  S
N28          C29   1.360       .  A
C29          N30   1.357   1_565  A
C29          C75   1.471   1_554  S
C31          N32   1.358       .  A
C31          N36   1.354   1_545  A
C31        C3077   1.486       .  S
N32          C33   1.361   1_545  A
C33          N34   1.360       .  A
C33          C93   1.470       .  S
N34          C35   1.359       .  A
C35          N36   1.356       .  A
C35        C3105   1.487       .  S
C37          N38   1.360       .  A
C37          N42   1.354       .  A
C37        C3056   1.490       .  S
N38          C39   1.361       .  A
C39          N40   1.357   1_565  A
C39          C89   1.463   1_556  S
N40          C41   1.353       .  A
C41          N42   1.353   1_545  A
C41        C3021   1.468       .  S
C43          N44   1.360       .  A
C43          N48   1.358       .  A
C43        C2993   1.483       .  S
N44          C45   1.361   1_565  A
C45          N46   1.359       .  A
C45        C2965   1.497       .  S
N46          C47   1.358   1_545  A
C47          N48   1.358       .  A
C47          C83   1.470       .  S
C49          N50   1.356       .  A
C49          N54   1.356       .  A
C49        C2916   1.478       .  S
N50          C51   1.357   1_554  A
C51          N52   1.360       .  A
C51        C2937   1.489       .  S
N52          C53   1.361       .  A
C53          N54   1.359   1_556  A
C55          N56   1.359       .  A
C55          N60   1.358   1_554  A
C55        C2853   1.490       .  S
N56          C57   1.359   1_554  A
C57          N58   1.356       .  A
N58          C59   1.355       .  A
C59          N60   1.356       .  A
C59        C2888   1.473       .  S
C61          N62   1.362       .  A
C61          N66   1.357   1_556  A
C61        C2825   1.494       .  S
N62          C63   1.364   1_556  A
C63          N64   1.358       .  A
N64          C65   1.355       .  A
C65          N66   1.356       .  A
C65        C2804   1.473       .  S
C67          N68   1.358       .  A
C67          N72   1.358       .  A
C67        C2776   1.481       .  S
N68          C69   1.360   1_556  A
C69          N70   1.361       .  A
C69        C2741   1.510       .  S
N70          C71   1.359   1_554  A
C71          N72   1.358       .  A
C73          N74   1.357       .  A
C73          N78   1.354   1_545  A
C73        C2685   1.481       .  S
N74          C75   1.360   1_545  A
C75          N76   1.361       .  A
N76          C77   1.360       .  A
C77          N78   1.354       .  A
C77        C2713   1.483       .  S
C79          N80   1.354   1_545  A
C79          N84   1.359       .  A
C79        C2629   1.492       .  S
N80          C81   1.353       .  A
C81          N82   1.359       .  A
C81        C2657   1.483       .  S
N82          C83   1.360       .  A
C83          N84   1.361   1_565  A
C85          N86   1.356   1_545  A
C85          N90   1.358       .  A
C85        C2573   1.499       .  S
N86          C87   1.357       .  A
C87          N88   1.357       .  A
C87        C2608   1.486       .  S
N88          C89   1.356       .  A
C89          N90   1.359   1_565  A
C91          N92   1.359       .  A
C91          N96   1.354       .  A
C91        C2545   1.480       .  S
N92          C93   1.361       .  A
C93          N94   1.359   1_565  A
N94          C95   1.357       .  A
C95          N96   1.355   1_545  A
C95        C2517   1.476       .  S
C97          N98   1.359       .  A
C97         N102   1.355       .  A
C97        C2489   1.481       .  S
N98          C99   1.362       .  A
C99         N100   1.366       .  A
C99         C111   1.484   1_545  S
N100        C101   1.366       .  A
C101        N102   1.357       .  A
C101       C2468   1.498       .  S
C103        N104   1.355       .  A
C103        N108   1.359       .  A
C103       C2440   1.479       .  S
N104        C105   1.357       .  A
C105        N106   1.362       .  A
C105        C141   1.470       .  S
N106        C107   1.362       .  A
C107        N108   1.360       .  A
C107       C2412   1.495       .  S
C109        N110   1.362       .  A
C109        N114   1.355       .  A
C109       C2356   1.481       .  S
N110        C111   1.363       .  A
C111        N112   1.364       .  A
N112        C113   1.363       .  A
C113        N114   1.355       .  A
C113       C2377   1.498       .  S
C115        N116   1.353       .  A
C115        N120   1.356       .  A
C115       C2321   1.472       .  S
N116        C117   1.356       .  A
C117        N118   1.359       .  A
C117       C2293   1.486       .  S
N118        C119   1.359       .  A
C119        N120   1.359       .  A
C119        C131   1.467       .  S
C121        N122   1.355       .  A
C121        N126   1.361       .  A
C121       C2265   1.490       .  S
N122        C123   1.355       .  A
C123        N124   1.359       .  A
C123       C2237   1.481       .  S
N124        C125   1.360       .  A
C125        N126   1.363       .  A
C125        C137   1.474   1_565  S
C127        N128   1.356       .  A
C127        N132   1.360       .  A
C127       C2216   1.490       .  S
N128        C129   1.353       .  A
C129        N130   1.357       .  A
C129       C2181   1.479       .  S
N130        C131   1.359       .  A
C131        N132   1.361       .  A
C133        N134   1.351       .  A
C133        N138   1.362       .  A
C133       C2160   1.485       .  S
N134        C135   1.350       .  A
C135        N136   1.357       .  A
C135       C2125   1.475       .  S
N136        C137   1.361       .  A
C137        N138   1.365       .  A
C139        N140   1.360       .  A
C139        N144   1.358       .  A
C139       C2069   1.500       .  S
N140        C141   1.360       .  A
C141        N142   1.361       .  A
N142        C143   1.358       .  A
C143        N144   1.356       .  A
C143       C2097   1.496       .  S
C145        N146   1.360       .  A
C145        N150   1.357       .  A
C145       C2041   1.484       .  S
N146        C147   1.359       .  A
C147        N148   1.357       .  A
C147       C2013   1.488       .  S
N148        C149   1.357       .  A
C149        N150   1.359       .  A
C149        C293   1.464       .  S
C151        N152   1.355       .  A
C151        N156   1.354       .  A
C151       C1985   1.471       .  S
N152        C153   1.356       .  A
C153        N154   1.361       .  A
C153        C365   1.464       .  S
N154        C155   1.359       .  A
C155        N156   1.354       .  A
C155       C1964   1.487       .  S
O157       Zr193   2.430       .  S
O157        C168   1.291       .  A
O158       Zr192   2.444       .  S
O158        C169   1.293       .  A
O159       Zr165   2.436       .  S
O159        C170   1.292       .  A
O160       Zr165   2.445       .  S
O160        C171   1.293       .  A
O161       Zr195   2.439       .  S
O161        C171   1.292       .  A
O162       Zr194   2.443       .  S
O162        C170   1.294       .  A
O163       Zr165   2.438       .  S
O163        C169   1.292       .  A
O164       Zr165   2.433       .  S
O164        C168   1.291       .  A
Zr165       O166   2.338       .  S
Zr165       O167   2.343       .  S
Zr165       O175   2.342       .  S
Zr165       O173   2.342       .  S
O166       Zr192   2.341       .  S
O166       Zr195   2.343       .  S
O167       Zr193   2.338       .  S
O167       Zr194   2.340       .  S
C168       C3357   1.485       .  S
C169       C2209   1.494       .  S
C170       C1957   1.487       .  S
C171       C2272   1.487       .  S
H172        O173   0.966       .  S
O173       Zr192   2.340       .  S
O173       Zr194   2.344       .  S
H174        O175   0.966       .  S
O175       Zr193   2.338       .  S
O175       Zr195   2.341       .  S
O176       Zr192   2.436       .  S
O176        C199   1.292       .  A
O177       Zr193   2.421       .  S
O177        C200   1.289       .  A
O178       Zr194   2.447       .  S
O178        C201   1.295       .  A
O179       Zr195   2.432       .  S
O179        C202   1.290       .  A
O180       Zr195   2.431       .  S
O180        C203   1.291       .  A
O181       Zr194   2.458       .  S
O181        C204   1.296       .  A
O182       Zr196   2.446       .  S
O182        C205   1.294       .  A
O183       Zr196   2.443       .  S
O183        C206   1.293       .  A
O184       Zr194   2.438       .  S
O184        C205   1.292       .  A
O185       Zr195   2.440       .  S
O185        C206   1.293       .  A
O186       Zr192   2.449       .  S
O186        C201   1.294       .  A
O187       Zr193   2.437       .  S
O187        C204   1.292       .  A
O188       Zr193   2.439       .  S
O188        C203   1.292       .  A
O189       Zr192   2.451       .  S
O189        C202   1.295       .  A
O190       Zr196   2.440       .  S
O190        C199   1.293       .  A
O191       Zr196   2.445       .  S
O191        C200   1.294       .  A
Zr192       O198   2.344       .  S
Zr192       O210   2.345       .  S
Zr193       O197   2.336       .  S
Zr193       O208   2.339       .  S
Zr194       O198   2.344       .  S
Zr194       O208   2.339       .  S
Zr195       O197   2.337       .  S
Zr195       O210   2.344       .  S
Zr196       O197   2.339       .  S
Zr196       O198   2.340       .  S
Zr196       O210   2.347       .  S
Zr196       O208   2.341       .  S
C199       C1901   1.486       .  S
C200       C1873   1.484       .  S
C201       C2020   1.503       .  S
C202       C1929   1.488       .  S
C203       C2601   1.488       .  S
C204       C3308   1.498       .  S
C205       C1852   1.484       .  S
C206       C2552   1.494       .  S
H207        O208   0.966       .  S
H209        O210   0.966       .  S
C211        N212   1.354       .  A
C211        N216   1.360       .  A
C211       C1817   1.496       .  S
N212        C213   1.353       .  A
C213        N214   1.358       .  A
C213       C1789   1.496       .  S
N214        C215   1.361       .  A
C215        N216   1.361       .  A
C215        C603   1.469       .  S
C217        N218   1.354       .  A
C217        N222   1.355       .  A
C217       C1761   1.477       .  S
N218        C219   1.356       .  A
C219        N220   1.362       .  A
C219        C285   1.468   1_545  S
N220        C221   1.361       .  A
C221        N222   1.358       .  A
C221       C1740   1.485       .  S
O223       Zr259   2.420       .  S
O223        C234   1.287       .  A
O224       Zr258   2.431       .  S
O224        C235   1.291       .  A
O225       Zr231   2.430       .  S
O225        C236   1.291       .  A
O226       Zr231   2.426       .  S
O226        C237   1.289       .  A
O227       Zr261   2.456       .  S
O227        C237   1.294       .  A
O228       Zr260   2.452       .  S
O228        C236   1.295       .  A
O229       Zr231   2.441       .  S
O229        C235   1.293       .  A
O230       Zr231   2.429       .  S
O230        C234   1.290       .  A
Zr231       O232   2.357       .  S
Zr231       O233   2.361       .  S
Zr231       O241   2.375       .  S
Zr231       O239   2.340       .  S
O232       Zr258   2.362       .  S
O232       Zr261   2.322       .  S
O233       Zr259   2.323       .  S
O233       Zr260   2.367       .  S
C234       C3028   1.481       .  S
C235       C2769   1.493       .  S
C236       C1656   1.486       .  S
C237       C2832   1.498       .  S
H238        O239   0.966       .  S
O239       Zr258   2.333       .  S
O239       Zr260   2.335       .  S
H240        O241   0.961       .  S
O241       Zr259   2.351       .  S
O241       Zr261   2.346       .  S
O242       Zr258   2.414       .  S
O242        C265   1.287       .  A
O243       Zr259   2.421       .  S
O243        C266   1.284       .  A
O244       Zr260   2.446       .  S
O244        C267   1.294       .  A
O245       Zr261   2.445       .  S
O245        C268   1.292       .  A
O246       Zr261   2.443       .  S
O246        C269   1.289       .  A
O247       Zr260   2.410       .  S
O247        C270   1.286       .  A
O248       Zr262   2.432       .  S
O248        C271   1.290       .  A
O249       Zr262   2.424       .  S
O249        C272   1.285       .  A
O250       Zr260   2.436       .  S
O250        C271   1.291       .  A
O251       Zr261   2.435       .  S
O251        C272   1.286       .  A
O252       Zr258   2.453       .  S
O252        C267   1.295       .  A
O253       Zr259   2.456       .  S
O253        C270   1.295       .  A
O254       Zr259   2.451       .  S
O254        C269   1.289       .  A
O255       Zr258   2.426       .  S
O255        C268   1.290       .  A
O256       Zr262   2.434       .  S
O256        C265   1.290       .  A
O257       Zr262   2.429       .  S
O257        C266   1.285       .  A
Zr258       O264   2.355       .  S
Zr258       O276   2.377       .  S
Zr259       O263   2.331       .  S
Zr259       O274   2.345       .  S
Zr260       O264   2.354       .  S
Zr260       O274   2.384       .  S
Zr261       O263   2.336       .  S
Zr261       O276   2.357       .  S
Zr262       O263   2.331       .  S
Zr262       O264   2.317       .  S
Zr262       O276   2.346       .  S
Zr262       O274   2.343       .  S
C265       C1684   1.486       .  S
C266       C1733   1.493       .  S
C267       C1621   1.499       .  S
C268       C1705   1.486       .  S
C269       C2461   1.502       .  S
C270       C2972   1.483       .  S
C271       C1796   1.484       .  S
C272       C2405   1.487       .  S
H273        O274   0.966       .  S
H275        O276   0.977       .  S
C277        N278   1.360       .  A
C277        N282   1.357       .  A
C277       C1908   1.486       .  S
N278        C279   1.360       .  A
C279        N280   1.357       .  A
C279        C435   1.466       .  S
N280        C281   1.355       .  A
C281        N282   1.356       .  A
C281       C1593   1.482       .  S
C283        N284   1.359       .  A
C283        N288   1.356       .  A
C283       C1572   1.484       .  S
N284        C285   1.359       .  A
C285        N286   1.361       .  A
N286        C287   1.358       .  A
C287        N288   1.355       .  A
C287       C1936   1.491       .  S
C289        N290   1.356       .  A
C289        N294   1.357       .  A
C289       C1677   1.478       .  S
N290        C291   1.356       .  A
C291        N292   1.357       .  A
C291       C1537   1.477       .  S
N292        C293   1.359       .  A
C293        N294   1.357       .  A
C295        N296   1.355       .  A
C295        N300   1.362       .  A
C295       C1712   1.490       .  S
N296        C297   1.354       .  A
C297        N298   1.355       .  A
C297       C1516   1.470       .  S
N298        C299   1.358       .  A
C299        N300   1.363       .  A
C299        C465   1.470       .  S
O301       Zr337   2.431       .  S
O301        C312   1.291       .  A
O302       Zr336   2.447       .  S
O302        C313   1.293       .  A
O303       Zr309   2.434       .  S
O303        C314   1.292       .  A
O304       Zr309   2.426       .  S
O304        C315   1.290       .  A
O305       Zr339   2.432       .  S
O305        C315   1.291       .  A
O306       Zr338   2.444       .  S
O306        C314   1.293       .  A
O307       Zr309   2.428       .  S
O307        C313   1.290       .  A
O308       Zr309   2.438       .  S
O308        C312   1.292       .  A
Zr309       O310   2.339       .  S
Zr309       O311   2.335       .  S
Zr309       O319   2.340       .  S
Zr309       O317   2.339       .  S
O310       Zr336   2.332       .  S
O310       Zr339   2.336       .  S
O311       Zr337   2.345       .  S
O311       Zr338   2.346       .  S
C312       C3385   1.491       .  S
C313       C2300   1.483       .  S
C314       C2349   1.495       .  S
C315       C1509   1.490       .  S
H316        O317   0.966       .  S
O317       Zr336   2.334       .  S
O317       Zr338   2.343       .  S
H318        O319   0.966       .  S
O319       Zr337   2.334       .  S
O319       Zr339   2.338       .  S
O320       Zr336   2.420       .  S
O320        C343   1.289       .  A
O321       Zr337   2.428       .  S
O321        C344   1.290       .  A
O322       Zr338   2.438       .  S
O322        C345   1.292       .  A
O323       Zr339   2.439       .  S
O323        C346   1.293       .  A
O324       Zr339   2.437       .  S
O324        C347   1.292       .  A
O325       Zr338   2.429       .  S
O325        C348   1.291       .  A
O326       Zr340   2.438       .  S
O326        C349   1.292       .  A
O327       Zr340   2.422       .  S
O327        C350   1.289       .  A
O328       Zr338   2.445       .  S
O328        C349   1.294       .  A
O329       Zr339   2.430       .  S
O329        C350   1.291       .  A
O330       Zr336   2.441       .  S
O330        C345   1.293       .  A
O331       Zr337   2.437       .  S
O331        C348   1.292       .  A
O332       Zr337   2.459       .  S
O332        C347   1.296       .  A
O333       Zr336   2.437       .  S
O333        C346   1.292       .  A
O334       Zr340   2.444       .  S
O334        C343   1.294       .  A
O335       Zr340   2.459       .  S
O335        C344   1.296       .  A
Zr336       O342   2.342       .  S
Zr336       O354   2.342       .  S
Zr337       O341   2.335       .  S
Zr337       O352   2.352       .  S
Zr338       O342   2.332       .  S
Zr338       O352   2.344       .  S
Zr339       O341   2.338       .  S
Zr339       O354   2.332       .  S
Zr340       O341   2.340       .  S
Zr340       O342   2.337       .  S
Zr340       O354   2.345       .  S
Zr340       O352   2.337       .  S
C343       C1600   1.480       .  S
C344       C1481   1.491       .  S
C345       C1565   1.486       .  S
C346       C1544   1.491       .  S
C347       C3329   1.495       .  S
C348       C3049   1.485       .  S
C349       C3000   1.495       .  S
C350       C1453   1.488       .  S
H351        O352   0.967       .  S
H353        O354   0.966       .  S
C355        N356   1.360       .  A
C355        N360   1.358       .  A
C355       C1404   1.503       .  S
N356        C357   1.358       .  A
C357        N358   1.359       .  A
C357       C1425   1.485       .  S
N358        C359   1.360       .  A
C359        N360   1.357       .  A
C359        C461   1.470       .  S
C361        N362   1.359       .  A
C361        N366   1.353       .  A
C361       C1348   1.474       .  S
N362        C363   1.358       .  A
C363        N364   1.359       .  A
C363       C1369   1.487       .  S
N364        C365   1.362       .  A
C365        N366   1.356       .  A
C367        N368   1.358       .  A
C367        N372   1.353       .  A
C367       C1313   1.474       .  S
N368        C369   1.361       .  A
C369        N370   1.360       .  A
C369       C1845   1.500       .  S
N370        C371   1.358       .  A
C371        N372   1.355       .  A
C371        C525   1.464       .  S
C373        N374   1.357       .  A
C373        N378   1.356       .  A
C373       C1292   1.482       .  S
N374        C375   1.359       .  A
C375        N376   1.356       .  A
C375        C453   1.465   1_554  S
N376        C377   1.357       .  A
C377        N378   1.358       .  A
C377       C1880   1.489       .  S
O379       Zr415   2.440       .  S
O379        C390   1.292       .  A
O380       Zr414   2.454       .  S
O380        C391   1.295       .  A
O381       Zr387   2.451       .  S
O381        C392   1.295       .  A
O382       Zr387   2.448       .  S
O382        C393   1.294       .  A
O383       Zr417   2.428       .  S
O383        C393   1.290       .  A
O384       Zr416   2.438       .  S
O384        C392   1.293       .  A
O385       Zr387   2.418       .  S
O385        C391   1.288       .  A
O386       Zr387   2.441       .  S
O386        C390   1.292       .  A
Zr387       O388   2.347       .  S
Zr387       O389   2.335       .  S
Zr387       O397   2.339       .  S
Zr387       O395   2.347       .  S
O388       Zr414   2.340       .  S
O388       Zr417   2.343       .  S
O389       Zr415   2.334       .  S
O389       Zr416   2.345       .  S
C390       C3161   1.488       .  S
C391       C2860   1.479       .  S
C392       C2909   1.496       .  S
C393       C1285   1.498       .  S
H394        O395   0.966       .  S
O395       Zr414   2.334       .  S
O395       Zr416   2.340       .  S
H396        O397   0.966       .  S
O397       Zr415   2.338       .  S
O397       Zr417   2.350       .  S
O398       Zr414   2.427       .  S
O398        C421   1.290       .  A
O399       Zr415   2.423       .  S
O399        C422   1.289       .  A
O400       Zr416   2.443       .  S
O400        C423   1.293       .  A
O401       Zr417   2.444       .  S
O401        C424   1.293       .  A
O402       Zr417   2.429       .  S
O402        C425   1.290       .  A
O403       Zr416   2.437       .  S
O403        C426   1.293       .  A
O404       Zr418   2.420       .  S
O404        C427   1.289       .  A
O405       Zr418   2.429       .  S
O405        C428   1.290       .  A
O406       Zr416   2.448       .  S
O406        C427   1.295       .  A
O407       Zr417   2.455       .  S
O407        C428   1.295       .  A
O408       Zr414   2.436       .  S
O408        C423   1.292       .  A
O409       Zr415   2.434       .  S
O409        C426   1.291       .  A
O410       Zr415   2.438       .  S
O410        C425   1.291       .  A
O411       Zr414   2.418       .  S
O411        C424   1.287       .  A
O412       Zr418   2.445       .  S
O412        C421   1.293       .  A
O413       Zr418   2.440       .  S
O413        C422   1.293       .  A
Zr414       O420   2.338       .  S
Zr414       O432   2.343       .  S
Zr415       O419   2.339       .  S
Zr415       O430   2.345       .  S
Zr416       O420   2.335       .  S
Zr416       O430   2.340       .  S
Zr417       O419   2.336       .  S
Zr417       O432   2.320       .  S
Zr418       O419   2.329       .  S
Zr418       O420   2.343       .  S
Zr418       O432   2.329       .  S
Zr418       O430   2.340       .  S
C421       C1397   1.473       .  S
C422       C1257   1.492       .  S
C423       C1341   1.496       .  S
C424       C1320   1.501       .  S
C425       C3112   1.471       .  S
C426       C2244   1.486       .  S
C427       C2188   1.488       .  S
C428       C1236   1.508       .  S
H429        O430   0.966       .  S
H431        O432   0.965       .  S
C433        N434   1.356       .  A
C433        N438   1.354       .  A
C433       C1201   1.481       .  S
N434        C435   1.361       .  A
C435        N436   1.361       .  A
N436        C437   1.358       .  A
C437        N438   1.353       .  A
C437       C1229   1.479       .  S
C439        N440   1.358       .  A
C439        N444   1.360       .  A
C439       C1173   1.493       .  S
N440        C441   1.357       .  A
C441        N442   1.356       .  A
C441        C611   1.462   1_565  S
N442        C443   1.355       .  A
C443        N444   1.358       .  A
C443       C1264   1.475       .  S
C445        N446   1.355       .  A
C445        N450   1.358       .  A
C445       C1145   1.477       .  S
N446        C447   1.354       .  A
C447        N448   1.354       .  A
C447       C1460   1.467       .  S
N448        C449   1.356       .  A
C449        N450   1.360       .  A
C449        C591   1.463       .  S
C451        N452   1.360       .  A
C451        N456   1.361       .  A
C451       C1488   1.500       .  S
N452        C453   1.360       .  A
C453        N454   1.355       .  A
N454        C455   1.354       .  A
C455        N456   1.360       .  A
C455       C1117   1.478       .  S
C457        N458   1.355       .  A
C457        N462   1.360       .  A
C457       C1096   1.497       .  S
N458        C459   1.355       .  A
C459        N460   1.358       .  A
C459       C1061   1.497       .  S
N460        C461   1.359       .  A
C461        N462   1.362       .  A
C463        N464   1.361       .  A
C463        N468   1.359       .  A
C463       C1033   1.497       .  S
N464        C465   1.362       .  A
C465        N466   1.357       .  A
N466        C467   1.356       .  A
C467        N468   1.358       .  A
C467       C1005   1.480       .  S
O469       Zr505   2.442       .  S
O469        C480   1.294       .  A
O470       Zr504   2.436       .  S
O470        C481   1.291       .  A
O471       Zr477   2.443       .  S
O471        C482   1.293       .  A
O472       Zr477   2.438       .  S
O472        C483   1.293       .  A
O473       Zr507   2.442       .  S
O473        C483   1.293       .  A
O474       Zr506   2.448       .  S
O474        C482   1.294       .  A
O475       Zr477   2.427       .  S
O475        C481   1.290       .  A
O476       Zr477   2.432       .  S
O476        C480   1.291       .  A
Zr477       O478   2.338       .  S
Zr477       O479   2.336       .  S
Zr477       O487   2.342       .  S
Zr477       O485   2.336       .  S
O478       Zr504   2.335       .  S
O478       Zr507   2.340       .  S
O479       Zr505   2.340       .  S
O479       Zr506   2.337       .  S
C480       C2944   1.486       .  S
C481       C2328   1.500       .  S
C482       C1040   1.493       .  S
C483       C2384   1.495       .  S
H484        O485   0.966       .  S
O485       Zr504   2.344       .  S
O485       Zr506   2.339       .  S
H486        O487   0.966       .  S
O487       Zr505   2.341       .  S
O487       Zr507   2.340       .  S
O488       Zr504   2.428       .  S
O488        C511   1.290       .  A
O489       Zr505   2.444       .  S
O489        C512   1.294       .  A
O490       Zr506   2.444       .  S
O490        C513   1.293       .  A
O491       Zr507   2.437       .  S
O491        C514   1.292       .  A
O492       Zr507   2.439       .  S
O492        C515   1.292       .  A
O493       Zr506   2.435       .  S
O493        C516   1.291       .  A
O494       Zr508   2.445       .  S
O494        C517   1.294       .  A
O495       Zr508   2.430       .  S
O495        C518   1.291       .  A
O496       Zr506   2.437       .  S
O496        C517   1.292       .  A
O497       Zr507   2.436       .  S
O497        C518   1.292       .  A
O498       Zr504   2.429       .  S
O498        C513   1.290       .  A
O499       Zr505   2.434       .  S
O499        C516   1.292       .  A
O500       Zr505   2.439       .  S
O500        C515   1.292       .  A
O501       Zr504   2.440       .  S
O501        C514   1.293       .  A
O502       Zr508   2.442       .  S
O502        C511   1.293       .  A
O503       Zr508   2.428       .  S
O503        C512   1.290       .  A
Zr504       O510   2.341       .  S
Zr504       O522   2.338       .  S
Zr505       O509   2.334       .  S
Zr505       O520   2.339       .  S
Zr506       O510   2.342       .  S
Zr506       O520   2.341       .  S
Zr507       O509   2.337       .  S
Zr507       O522   2.345       .  S
Zr508       O509   2.343       .  S
Zr508       O510   2.335       .  S
Zr508       O522   2.339       .  S
Zr508       O520   2.334       .  S
C511       C1208   1.491       .  S
C512       C1124   1.492       .  S
C513       C1089   1.474       .  S
C514       C1180   1.488       .  S
C515       C2720   1.487       .  S
C516       C2881   1.499       .  S
C517       C1152   1.500       .  S
C518       C2664   1.485       .  S
H519        O520   0.966       .  S
H521        O522   0.966       .  S
C523        N524   1.356       .  A
C523        N528   1.353       .  A
C523        C949   1.470       .  S
N524        C525   1.358       .  A
C525        N526   1.359       .  A
N526        C527   1.358       .  A
C527        N528   1.354       .  A
C527        C984   1.488       .  S
C529        N530   1.357       .  A
C529        N534   1.359       .  A
C529        C928   1.482       .  S
N530        C531   1.357       .  A
C531        N532   1.353       .  A
C531        C893   1.470       .  S
N532        C533   1.356       .  A
C533        N534   1.360       .  A
C533        C597   1.463   1_554  S
O535       Zr571   2.432       .  S
O535        C546   1.291       .  A
O536       Zr570   2.438       .  S
O536        C547   1.292       .  A
O537       Zr543   2.441       .  S
O537        C548   1.292       .  A
O538       Zr543   2.431       .  S
O538        C549   1.291       .  A
O539       Zr573   2.450       .  S
O539        C549   1.295       .  A
O540       Zr572   2.448       .  S
O540        C548   1.294       .  A
O541       Zr543   2.450       .  S
O541        C547   1.294       .  A
O542       Zr543   2.451       .  S
O542        C546   1.294       .  A
Zr543       O544   2.346       .  S
Zr543       O545   2.340       .  S
Zr543       O553   2.348       .  S
Zr543       O551   2.341       .  S
O544       Zr570   2.340       .  S
O544       Zr573   2.341       .  S
O545       Zr571   2.344       .  S
O545       Zr572   2.340       .  S
C546       C3245   1.487       .  S
C547       C2104   1.490       .  S
C548       C1376   1.498       .  S
C549       C2153   1.491       .  S
H550        O551   0.966       .  S
O551       Zr570   2.343       .  S
O551       Zr572   2.340       .  S
H552        O553   0.966       .  S
O553       Zr571   2.338       .  S
O553       Zr573   2.339       .  S
O554       Zr570   2.440       .  S
O554        C577   1.293       .  A
O555       Zr571   2.430       .  S
O555        C578   1.290       .  A
O556       Zr572   2.443       .  S
O556        C579   1.294       .  A
O557       Zr573   2.432       .  S
O557        C580   1.291       .  A
O558       Zr573   2.426       .  S
O558        C581   1.290       .  A
O559       Zr572   2.452       .  S
O559        C582   1.295       .  A
O560       Zr574   2.439       .  S
O560        C583   1.293       .  A
O561       Zr574   2.444       .  S
O561        C584   1.293       .  A
O562       Zr572   2.437       .  S
O562        C583   1.292       .  A
O563       Zr573   2.443       .  S
O563        C584   1.293       .  A
O564       Zr570   2.439       .  S
O564        C579   1.292       .  A
O565       Zr571   2.430       .  S
O565        C582   1.291       .  A
O566       Zr571   2.442       .  S
O566        C581   1.292       .  A
O567       Zr570   2.448       .  S
O567        C580   1.294       .  A
O568       Zr574   2.448       .  S
O568        C577   1.294       .  A
O569       Zr574   2.453       .  S
O569        C578   1.295       .  A
Zr570       O576   2.341       .  S
Zr570       O588   2.337       .  S
Zr571       O575   2.336       .  S
Zr571       O586   2.342       .  S
Zr572       O576   2.342       .  S
Zr572       O586   2.346       .  S
Zr573       O575   2.339       .  S
Zr573       O588   2.338       .  S
Zr574       O575   2.339       .  S
Zr574       O576   2.340       .  S
Zr574       O588   2.346       .  S
Zr574       O586   2.345       .  S
C577        C844   1.493       .  S
C578        C921   1.497       .  S
C579       C1432   1.498       .  S
C580        C872   1.489       .  S
C581       C3140   1.489       .  S
C582       C3189   1.496       .  S
C583        C977   1.485       .  S
C584       C3084   1.494       .  S
H585        O586   0.966       .  S
H587        O588   0.966       .  S
C589        N590   1.358       .  A
C589        N594   1.359       .  A
C589       C1628   1.492       .  S
N590        C591   1.360       .  A
C591        N592   1.356       .  A
N592        C593   1.355       .  A
C593        N594   1.358       .  A
C593        C809   1.480       .  S
C595        N596   1.357       .  A
C595        N600   1.354       .  A
C595       C1649   1.484       .  S
N596        C597   1.359       .  A
C597        N598   1.357       .  A
N598        C599   1.357       .  A
C599        N600   1.355       .  A
C599        C781   1.483       .  S
C601        N602   1.358       .  A
C601        N606   1.357       .  A
C601        C760   1.492       .  S
N602        C603   1.359       .  A
C603        N604   1.361       .  A
N604        C605   1.360       .  A
C605        N606   1.356       .  A
C605        C837   1.489       .  S
C607        N608   1.357       .  A
C607        N612   1.356       .  A
C607        C865   1.486       .  S
N608        C609   1.358       .  A
C609        N610   1.357       .  A
C609        C732   1.493       .  S
N610        C611   1.358       .  A
C611        N612   1.358       .  A
O613       Zr649   2.440       .  S
O613        C624   1.292       .  A
O614       Zr648   2.448       .  S
O614        C625   1.293       .  A
O615       Zr621   2.439       .  S
O615        C626   1.292       .  A
O616       Zr621   2.427       .  S
O616        C627   1.290       .  A
O617       Zr651   2.441       .  S
O617        C627   1.293       .  A
O618       Zr650   2.440       .  S
O618        C626   1.292       .  A
O619       Zr621   2.441       .  S
O619        C625   1.293       .  A
O620       Zr621   2.438       .  S
O620        C624   1.292       .  A
Zr621       O622   2.338       .  S
Zr621       O623   2.337       .  S
Zr621       O631   2.345       .  S
Zr621       O629   2.331       .  S
O622       Zr648   2.335       .  S
O622       Zr651   2.339       .  S
O623       Zr649   2.343       .  S
O623       Zr650   2.335       .  S
C624       C3273   1.479       .  S
C625       C2433   1.506       .  S
C626       C2496   1.511       .  S
C627       C1012   1.501       .  S
H628        O629   0.966       .  S
O629       Zr648   2.343       .  S
O629       Zr650   2.344       .  S
H630        O631   0.967       .  S
O631       Zr649   2.338       .  S
O631       Zr651   2.340       .  S
O632       Zr648   2.437       .  S
O632        C655   1.292       .  A
O633       Zr649   2.443       .  S
O633        C656   1.293       .  A
O634       Zr650   2.454       .  S
O634        C657   1.295       .  A
O635       Zr651   2.423       .  S
O635        C658   1.289       .  A
O636       Zr651   2.434       .  S
O636        C659   1.291       .  A
O637       Zr650   2.455       .  S
O637        C660   1.296       .  A
O638       Zr652   2.449       .  S
O638        C661   1.294       .  A
O639       Zr652   2.436       .  S
O639        C662   1.292       .  A
O640       Zr650   2.432       .  S
O640        C661   1.291       .  A
O641       Zr651   2.441       .  S
O641        C662   1.293       .  A
O642       Zr648   2.422       .  S
O642        C657   1.289       .  A
O643       Zr649   2.424       .  S
O643        C660   1.290       .  A
O644       Zr649   2.443       .  S
O644        C659   1.293       .  A
O645       Zr648   2.442       .  S
O645        C658   1.292       .  A
O646       Zr652   2.438       .  S
O646        C655   1.292       .  A
O647       Zr652   2.437       .  S
O647        C656   1.292       .  A
Zr648       O654   2.342       .  S
Zr648       O666   2.339       .  S
Zr649       O653   2.335       .  S
Zr649       O664   2.345       .  S
Zr650       O654   2.340       .  S
Zr650       O664   2.346       .  S
Zr651       O653   2.338       .  S
Zr651       O666   2.346       .  S
Zr652       O653   2.343       .  S
Zr652       O654   2.337       .  S
Zr652       O666   2.342       .  S
Zr652       O664   2.337       .  S
C655        C753   1.495       .  S
C656        C788   1.487       .  S
C657        C725   1.477       .  S
C658       C1068   1.470       .  S
C659       C3224   1.487       .  S
C660       C2692   1.488       .  S
C661       C2636   1.489       .  S
C662        C816   1.494       .  S
H663        O664   0.966       .  S
H665        O666   0.965       .  S
O667       Zr703   2.428       .  S
O667        C678   1.290       .  A
O668       Zr702   2.410       .  S
O668        C679   1.286       .  A
O669       Zr675   2.426       .  S
O669        C680   1.291       .  A
O670       Zr675   2.415       .  S
O670        C681   1.288       .  A
O671       Zr705   2.438       .  S
O671        C681   1.293       .  A
O672       Zr704   2.432       .  S
O672        C680   1.291       .  A
O673       Zr675   2.456       .  S
O673        C679   1.295       .  A
O674       Zr675   2.432       .  S
O674        C678   1.291       .  A
Zr675       O676   2.333       .  S
Zr675       O677   2.330       .  S
Zr675       O685   2.344       .  S
Zr675       O683   2.330       .  S
O676       Zr702   2.332       .  S
O676       Zr705   2.335       .  S
O677       Zr703   2.333       .  S
O677       Zr704   2.336       .  S
C678       C2797   1.498       .  S
C679       C2076   1.473       .  S
C680       C2132   1.490       .  S
C681       C1992   1.487       .  S
H682        O683   0.966       .  S
O683       Zr702   2.332       .  S
O683       Zr704   2.339       .  S
H684        O685   0.966       .  S
O685       Zr703   2.333       .  S
O685       Zr705   2.345       .  S
O686       Zr702   2.424       .  S
O686        C709   1.289       .  A
O687       Zr703   2.421       .  S
O687        C710   1.289       .  A
O688       Zr704   2.438       .  S
O688        C711   1.292       .  A
O689       Zr705   2.445       .  S
O689        C712   1.294       .  A
O690       Zr705   2.447       .  S
O690        C713   1.293       .  A
O691       Zr704   2.442       .  S
O691        C714   1.292       .  A
O692       Zr706   2.430       .  S
O692        C715   1.290       .  A
O693       Zr706   2.437       .  S
O693        C716   1.292       .  A
O694       Zr704   2.437       .  S
O694        C715   1.293       .  A
O695       Zr705   2.438       .  S
O695        C716   1.292       .  A
O696       Zr702   2.435       .  S
O696        C711   1.292       .  A
O697       Zr703   2.427       .  S
O697        C714   1.289       .  A
O698       Zr703   2.433       .  S
O698        C713   1.291       .  A
O699       Zr702   2.428       .  S
O699        C712   1.290       .  A
O700       Zr706   2.426       .  S
O700        C709   1.289       .  A
O701       Zr706   2.434       .  S
O701        C710   1.292       .  A
Zr702       O708   2.333       .  S
Zr702       O720   2.336       .  S
Zr703       O707   2.336       .  S
Zr703       O718   2.341       .  S
Zr704       O708   2.335       .  S
Zr704       O718   2.341       .  S
Zr705       O707   2.338       .  S
Zr705       O720   2.338       .  S
Zr706       O707   2.332       .  S
Zr706       O708   2.341       .  S
Zr706       O720   2.340       .  S
Zr706       O718   2.338       .  S
C709       C1824   1.464       .  S
C710        C900   1.486       .  S
C711       C1768   1.497       .  S
C712       C2048   1.498       .  S
C713       C2748   1.480       .  S
C714       C2580   1.472       .  S
C715       C2524   1.497       .  S
C716        C956   1.503       .  S
H717        O718   0.966       .  S
H719        O720   0.966       .  S
C721        C722   1.412       .  A
C721        C726   1.409       .  A
C721        C739   1.451       .  S
C722        C727   1.495       .  S
C722        C723   1.412       .  A
C723        C724   1.408       .  A
C723        C728   1.451       .  S
C724        C725   1.410       .  A
C724        C740   1.450       .  S
C725        C726   1.412       .  A
C726        C729   1.450       .  S
C727        C730   1.410       .  A
C727        C734   1.410       .  A
C728        N745   1.157       .  T
C729        N747   1.157       .  T
C730        C731   1.407       .  A
C730        C735   1.452       .  S
C731        C732   1.417       .  A
C731        C737   1.452       .  S
C732        C733   1.420       .  A
C733        C734   1.413       .  A
C733        C736   1.451       .  S
C734        C738   1.451       .  S
C735        N742   1.157       .  T
C736        N743   1.158       .  T
C737        N741   1.157       .  T
C738        N744   1.157       .  T
C739        N748   1.157       .  T
C740        N746   1.157       .  T
C749        C750   1.407       .  A
C749        C754   1.411       .  A
C749        C767   1.451       .  S
C750        C755   1.494       .  S
C750        C751   1.409       .  A
C751        C752   1.409       .  A
C751        C756   1.453       .  S
C752        C753   1.420       .  A
C752        C768   1.451       .  S
C753        C754   1.422       .  A
C754        C757   1.450       .  S
C755        C758   1.409       .  A
C755        C762   1.409       .  A
C756        N773   1.157       .  T
C757        N775   1.157       .  T
C758        C759   1.412       .  A
C758        C763   1.451       .  S
C759        C760   1.419       .  A
C759        C765   1.451       .  S
C760        C761   1.419       .  A
C761        C762   1.408       .  A
C761        C764   1.452       .  S
C762        C766   1.452       .  S
C763        N770   1.157       .  T
C764        N771   1.157       .  T
C765        N769   1.157       .  T
C766        N772   1.157       .  T
C767        N776   1.157       .  T
C768        N774   1.157       .  T
C777        C778   1.409       .  A
C777        C782   1.410       .  A
C777        C795   1.450       .  S
C778        C783   1.489       .  S
C778        C779   1.408       .  A
C779        C780   1.405       .  A
C779        C784   1.453       .  S
C780        C781   1.417       .  A
C780        C796   1.453       .  S
C781        C782   1.417       .  A
C782        C785   1.452       .  S
C783        C786   1.408       .  A
C783        C790   1.407       .  A
C784        N801   1.157       .  T
C785        N803   1.158       .  T
C786        C787   1.410       .  A
C786        C791   1.451       .  S
C787        C788   1.416       .  A
C787        C793   1.450       .  S
C788        C789   1.416       .  A
C789        C790   1.408       .  A
C789        C792   1.449       .  S
C790        C794   1.452       .  S
C791        N798   1.157       .  T
C792        N799   1.156       .  T
C793        N797   1.157       .  T
C794        N800   1.157       .  T
C795        N804   1.157       .  T
C796        N802   1.157       .  T
C805        C806   1.410       .  A
C805        C810   1.408       .  A
C805        C823   1.450       .  S
C806        C811   1.492       .  S
C806        C807   1.410       .  A
C807        C808   1.410       .  A
C807        C812   1.451       .  S
C808        C809   1.415       .  A
C808        C824   1.451       .  S
C809        C810   1.412       .  A
C810        C813   1.451       .  S
C811        C814   1.408       .  A
C811        C818   1.407       .  A
C812        N829   1.157       .  T
C813        N831   1.157       .  T
C814        C815   1.408       .  A
C814        C819   1.452       .  S
C815        C816   1.420       .  A
C815        C821   1.452       .  S
C816        C817   1.421       .  A
C817        C818   1.411       .  A
C817        C820   1.451       .  S
C818        C822   1.451       .  S
C819        N826   1.157       .  T
C820        N827   1.157       .  T
C821        N825   1.157       .  T
C822        N828   1.157       .  T
C823        N832   1.157       .  T
C824        N830   1.157       .  T
C833        C834   1.410       .  A
C833        C838   1.411       .  A
C833        C851   1.451       .  S
C834        C839   1.497       .  S
C834        C835   1.411       .  A
C835        C836   1.412       .  A
C835        C840   1.451       .  S
C836        C837   1.415       .  A
C836        C852   1.450       .  S
C837        C838   1.417       .  A
C838        C841   1.452       .  S
C839        C842   1.409       .  A
C839        C846   1.409       .  A
C840        N857   1.157       .  T
C841        N859   1.157       .  T
C842        C843   1.411       .  A
C842        C847   1.451       .  S
C843        C844   1.418       .  A
C843        C849   1.450       .  S
C844        C845   1.417       .  A
C845        C846   1.412       .  A
C845        C848   1.450       .  S
C846        C850   1.450       .  S
C847        N854   1.157       .  T
C848        N855   1.157       .  T
C849        N853   1.157       .  T
C850        N856   1.157       .  T
C851        N860   1.157       .  T
C852        N858   1.157       .  T
C861        C862   1.409       .  A
C861        C866   1.412       .  A
C861        C879   1.450       .  S
C862        C867   1.493       .  S
C862        C863   1.409       .  A
C863        C864   1.408       .  A
C863        C868   1.451       .  S
C864        C865   1.414       .  A
C864        C880   1.451       .  S
C865        C866   1.417       .  A
C866        C869   1.451       .  S
C867        C870   1.408       .  A
C867        C874   1.409       .  A
C868        N885   1.157       .  T
C869        N887   1.158       .  T
C870        C871   1.410       .  A
C870        C875   1.451       .  S
C871        C872   1.418       .  A
C871        C877   1.450       .  S
C872        C873   1.416       .  A
C873        C874   1.410       .  A
C873        C876   1.450       .  S
C874        C878   1.451       .  S
C875        N882   1.157       .  T
C876        N883   1.157       .  T
C877        N881   1.157       .  T
C878        N884   1.157       .  T
C879        N888   1.157       .  T
C880        N886   1.157       .  T
C889        C890   1.411       .  A
C889        C894   1.408       .  A
C889        C907   1.451       .  S
C890        C895   1.487       .  S
C890        C891   1.410       .  A
C891        C892   1.404       .  A
C891        C896   1.452       .  S
C892        C893   1.408       .  A
C892        C908   1.450       .  S
C893        C894   1.411       .  A
C894        C897   1.451       .  S
C895        C898   1.408       .  A
C895        C902   1.408       .  A
C896        N913   1.157       .  T
C897        N915   1.157       .  T
C898        C899   1.404       .  A
C898        C903   1.453       .  S
C899        C900   1.418       .  A
C899        C905   1.451       .  S
C900        C901   1.420       .  A
C901        C902   1.408       .  A
C901        C904   1.452       .  S
C902        C906   1.452       .  S
C903        N910   1.157       .  T
C904        N911   1.157       .  T
C905        N909   1.157       .  T
C906        N912   1.157       .  T
C907        N916   1.157       .  T
C908        N914   1.157       .  T
C917        C918   1.409       .  A
C917        C922   1.411       .  A
C917        C935   1.451       .  S
C918        C923   1.496       .  S
C918        C919   1.408       .  A
C919        C920   1.411       .  A
C919        C924   1.452       .  S
C920        C921   1.422       .  A
C920        C936   1.451       .  S
C921        C922   1.418       .  A
C922        C925   1.451       .  S
C923        C926   1.410       .  A
C923        C930   1.411       .  A
C924        N941   1.157       .  T
C925        N943   1.157       .  T
C926        C927   1.409       .  A
C926        C931   1.452       .  S
C927        C928   1.413       .  A
C927        C933   1.449       .  S
C928        C929   1.413       .  A
C929        C930   1.412       .  A
C929        C932   1.451       .  S
C930        C934   1.450       .  S
C931        N938   1.157       .  T
C932        N939   1.157       .  T
C933        N937   1.157       .  T
C934        N940   1.157       .  T
C935        N944   1.157       .  T
C936        N942   1.157       .  T
C945        C946   1.410       .  A
C945        C950   1.406       .  A
C945        C963   1.451       .  S
C946        C951   1.490       .  S
C946        C947   1.411       .  A
C947        C948   1.409       .  A
C947        C952   1.450       .  S
C948        C949   1.410       .  A
C948        C964   1.451       .  S
C949        C950   1.410       .  A
C950        C953   1.452       .  S
C951        C954   1.406       .  A
C951        C958   1.404       .  A
C952        N969   1.157       .  T
C953        N971   1.157       .  T
C954        C955   1.409       .  A
C954        C959   1.453       .  S
C955        C956   1.425       .  A
C955        C961   1.452       .  S
C956        C957   1.426       .  A
C957        C958   1.410       .  A
C957        C960   1.452       .  S
C958        C962   1.452       .  S
C959        N966   1.157       .  T
C960        N967   1.158       .  T
C961        N965   1.158       .  T
C962        N968   1.157       .  T
C963        N972   1.157       .  T
C964        N970   1.157       .  T
C973        C974   1.407       .  A
C973        C978   1.409       .  A
C973        C991   1.451       .  S
C974        C979   1.490       .  S
C974        C975   1.409       .  A
C975        C976   1.408       .  A
C975        C980   1.451       .  S
C976        C977   1.415       .  A
C976        C992   1.451       .  S
C977        C978   1.416       .  A
C978        C981   1.448       .  S
C979        C982   1.408       .  A
C979        C986   1.408       .  A
C980        N997   1.157       .  T
C981        N999   1.156       .  T
C982        C983   1.408       .  A
C982        C987   1.451       .  S
C983        C984   1.418       .  A
C983        C989   1.451       .  S
C984        C985   1.419       .  A
C985        C986   1.409       .  A
C985        C988   1.452       .  S
C986        C990   1.452       .  S
C987        N994   1.157       .  T
C988        N995   1.158       .  T
C989        N993   1.157       .  T
C990        N996   1.157       .  T
C991       N1000   1.157       .  T
C992        N998   1.157       .  T
C1001      C1002   1.411       .  A
C1001      C1006   1.409       .  A
C1001      C1019   1.451       .  S
C1002      C1007   1.492       .  S
C1002      C1003   1.409       .  A
C1003      C1004   1.410   1_655  A
C1003      C1008   1.450       .  S
C1004      C1005   1.414       .  A
C1004      C1020   1.450       .  S
C1005      C1006   1.412   1_455  A
C1006      C1009   1.451       .  S
C1007      C1010   1.407       .  A
C1007      C1014   1.405       .  A
C1008      N1025   1.157   1_655  T
C1009      N1027   1.157       .  T
C1010      C1011   1.409       .  A
C1010      C1015   1.452       .  S
C1011      C1012   1.423       .  A
C1011      C1017   1.452       .  S
C1012      C1013   1.426       .  A
C1013      C1014   1.411       .  A
C1013      C1016   1.452       .  S
C1014      C1018   1.451       .  S
C1015      N1022   1.157       .  T
C1016      N1023   1.158       .  T
C1017      N1021   1.157       .  T
C1018      N1024   1.157   1_655  T
C1019      N1028   1.157       .  T
C1020      N1026   1.157       .  T
C1029      C1030   1.411       .  A
C1029      C1034   1.416   1_655  A
C1029      C1047   1.450   1_655  S
C1030      C1035   1.501       .  S
C1030      C1031   1.410       .  A
C1031      C1032   1.411       .  A
C1031      C1036   1.452       .  S
C1032      C1033   1.418   1_655  A
C1032      C1048   1.451       .  S
C1033      C1034   1.418       .  A
C1034      C1037   1.450       .  S
C1035      C1038   1.411       .  A
C1035      C1042   1.410       .  A
C1036      N1053   1.157       .  T
C1037      N1055   1.157       .  T
C1038      C1039   1.414       .  A
C1038      C1043   1.450       .  S
C1039      C1040   1.417       .  A
C1039      C1045   1.450       .  S
C1040      C1041   1.416       .  A
C1041      C1042   1.412       .  A
C1041      C1044   1.450       .  S
C1042      C1046   1.451       .  S
C1043      N1050   1.157   1_655  T
C1044      N1051   1.157       .  T
C1045      N1049   1.157       .  T
C1046      N1052   1.157       .  T
C1047      N1056   1.157       .  T
C1048      N1054   1.157       .  T
C1057      C1058   1.409       .  A
C1057      C1062   1.411       .  A
C1057      C1075   1.452       .  S
C1058      C1063   1.494       .  S
C1058      C1059   1.409       .  A
C1059      C1060   1.409       .  A
C1059      C1064   1.453       .  S
C1060      C1061   1.423       .  A
C1060      C1076   1.453       .  S
C1061      C1062   1.421       .  A
C1062      C1065   1.451       .  S
C1063      C1066   1.414       .  A
C1063      C1070   1.412       .  A
C1064      N1081   1.157       .  T
C1065      N1083   1.157       .  T
C1066      C1067   1.408       .  A
C1066      C1071   1.450       .  S
C1067      C1068   1.409       .  A
C1067      C1073   1.452       .  S
C1068      C1069   1.410       .  A
C1069      C1070   1.407       .  A
C1069      C1072   1.451       .  S
C1070      C1074   1.451       .  S
C1071      N1078   1.157       .  T
C1072      N1079   1.157       .  T
C1073      N1077   1.158       .  T
C1074      N1080   1.157       .  T
C1075      N1084   1.157       .  T
C1076      N1082   1.158       .  T
C1085      C1086   1.417       .  A
C1085      C1090   1.410       .  A
C1085      C1103   1.451       .  S
C1086      C1091   1.502       .  S
C1086      C1087   1.414       .  A
C1087      C1088   1.409       .  A
C1087      C1092   1.450       .  S
C1088      C1089   1.409       .  A
C1088      C1104   1.451       .  S
C1089      C1090   1.408       .  A
C1090      C1093   1.451       .  S
C1091      C1094   1.413       .  A
C1091      C1098   1.412       .  A
C1092      N1109   1.157       .  T
C1093      N1111   1.158       .  T
C1094      C1095   1.413       .  A
C1094      C1099   1.452       .  S
C1095      C1096   1.418       .  A
C1095      C1101   1.451       .  S
C1096      C1097   1.420       .  A
C1097      C1098   1.410       .  A
C1097      C1100   1.453       .  S
C1098      C1102   1.453       .  S
C1099      N1106   1.157       .  T
C1100      N1107   1.157       .  T
C1101      N1105   1.157       .  T
C1102      N1108   1.157       .  T
C1103      N1112   1.157       .  T
C1104      N1110   1.157       .  T
C1113      C1114   1.410       .  A
C1113      C1118   1.409       .  A
C1113      C1131   1.451       .  S
C1114      C1119   1.490       .  S
C1114      C1115   1.410       .  A
C1115      C1116   1.408       .  A
C1115      C1120   1.451       .  S
C1116      C1117   1.410       .  A
C1116      C1132   1.449       .  S
C1117      C1118   1.413       .  A
C1118      C1121   1.451       .  S
C1119      C1122   1.406       .  A
C1119      C1126   1.408       .  A
C1120      N1137   1.157       .  T
C1121      N1139   1.157       .  T
C1122      C1123   1.408       .  A
C1122      C1127   1.451       .  S
C1123      C1124   1.419       .  A
C1123      C1129   1.448       .  S
C1124      C1125   1.419       .  A
C1125      C1126   1.409       .  A
C1125      C1128   1.451       .  S
C1126      C1130   1.452       .  S
C1127      N1134   1.157       .  T
C1128      N1135   1.157       .  T
C1129      N1133   1.156       .  T
C1130      N1136   1.157       .  T
C1131      N1140   1.157       .  T
C1132      N1138   1.157       .  T
C1141      C1142   1.411       .  A
C1141      C1146   1.411       .  A
C1141      C1159   1.450       .  S
C1142      C1147   1.492       .  S
C1142      C1143   1.410       .  A
C1143      C1144   1.407       .  A
C1143      C1148   1.452       .  S
C1144      C1145   1.411       .  A
C1144      C1160   1.450       .  S
C1145      C1146   1.413       .  A
C1146      C1149   1.451       .  S
C1147      C1150   1.406       .  A
C1147      C1154   1.407       .  A
C1148      N1165   1.157       .  T
C1149      N1167   1.157       .  T
C1150      C1151   1.411       .  A
C1150      C1155   1.451       .  S
C1151      C1152   1.423       .  A
C1151      C1157   1.451       .  S
C1152      C1153   1.422       .  A
C1153      C1154   1.410       .  A
C1153      C1156   1.451       .  S
C1154      C1158   1.452       .  S
C1155      N1162   1.157       .  T
C1156      N1163   1.157       .  T
C1157      N1161   1.157       .  T
C1158      N1164   1.157       .  T
C1159      N1168   1.157       .  T
C1160      N1166   1.157       .  T
C1169      C1170   1.408       .  A
C1169      C1174   1.411       .  A
C1169      C1187   1.451       .  S
C1170      C1175   1.492       .  S
C1170      C1171   1.408       .  A
C1171      C1172   1.409       .  A
C1171      C1176   1.452       .  S
C1172      C1173   1.418       .  A
C1172      C1188   1.450       .  S
C1173      C1174   1.421       .  A
C1174      C1177   1.452       .  S
C1175      C1178   1.407       .  A
C1175      C1182   1.410       .  A
C1176      N1193   1.157       .  T
C1177      N1195   1.158       .  T
C1178      C1179   1.410       .  A
C1178      C1183   1.451       .  S
C1179      C1180   1.417       .  A
C1179      C1185   1.449       .  S
C1180      C1181   1.415       .  A
C1181      C1182   1.409       .  A
C1181      C1184   1.451       .  S
C1182      C1186   1.451       .  S
C1183      N1190   1.157       .  T
C1184      N1191   1.157       .  T
C1185      N1189   1.156       .  T
C1186      N1192   1.157       .  T
C1187      N1196   1.157       .  T
C1188      N1194   1.157       .  T
C1197      C1198   1.411       .  A
C1197      C1202   1.411       .  A
C1197      C1215   1.451       .  S
C1198      C1203   1.490       .  S
C1198      C1199   1.408       .  A
C1199      C1200   1.406       .  A
C1199      C1204   1.450       .  S
C1200      C1201   1.414       .  A
C1200      C1216   1.452       .  S
C1201      C1202   1.413       .  A
C1202      C1205   1.449       .  S
C1203      C1206   1.407       .  A
C1203      C1210   1.408       .  A
C1204      N1221   1.157       .  T
C1205      N1223   1.157       .  T
C1206      C1207   1.411       .  A
C1206      C1211   1.450       .  S
C1207      C1208   1.419       .  A
C1207      C1213   1.451       .  S
C1208      C1209   1.420       .  A
C1209      C1210   1.407       .  A
C1209      C1212   1.451       .  S
C1210      C1214   1.453       .  S
C1211      N1218   1.157       .  T
C1212      N1219   1.157       .  T
C1213      N1217   1.157       .  T
C1214      N1220   1.157       .  T
C1215      N1224   1.157       .  T
C1216      N1222   1.157       .  T
C1225      C1226   1.411       .  A
C1225      C1230   1.411       .  A
C1225      C1243   1.451       .  S
C1226      C1231   1.497       .  S
C1226      C1227   1.412       .  A
C1227      C1228   1.409       .  A
C1227      C1232   1.450       .  S
C1228      C1229   1.412       .  A
C1228      C1244   1.452       .  S
C1229      C1230   1.412       .  A
C1230      C1233   1.450       .  S
C1231      C1234   1.407       .  A
C1231      C1238   1.407       .  A
C1232      N1249   1.157       .  T
C1233      N1251   1.157       .  T
C1234      C1235   1.413       .  A
C1234      C1239   1.452       .  S
C1235      C1236   1.425       .  A
C1235      C1241   1.451       .  S
C1236      C1237   1.427       .  A
C1237      C1238   1.412       .  A
C1237      C1240   1.452       .  S
C1238      C1242   1.453       .  S
C1239      N1246   1.157       .  T
C1240      N1247   1.158       .  T
C1241      N1245   1.157       .  T
C1242      N1248   1.157       .  T
C1243      N1252   1.157       .  T
C1244      N1250   1.157       .  T
C1253      C1254   1.410       .  A
C1253      C1258   1.411       .  A
C1253      C1271   1.452       .  S
C1254      C1259   1.495       .  S
C1254      C1255   1.410       .  A
C1255      C1256   1.406       .  A
C1255      C1260   1.452       .  S
C1256      C1257   1.417       .  A
C1256      C1272   1.452       .  S
C1257      C1258   1.421       .  A
C1258      C1261   1.452       .  S
C1259      C1262   1.413       .  A
C1259      C1266   1.414       .  A
C1260      N1277   1.157       .  T
C1261      N1279   1.158       .  T
C1262      C1263   1.407       .  A
C1262      C1267   1.451       .  S
C1263      C1264   1.409       .  A
C1263      C1269   1.450       .  S
C1264      C1265   1.411       .  A
C1265      C1266   1.409       .  A
C1265      C1268   1.451       .  S
C1266      C1270   1.451       .  S
C1267      N1274   1.157       .  T
C1268      N1275   1.157       .  T
C1269      N1273   1.157       .  T
C1270      N1276   1.157       .  T
C1271      N1280   1.157       .  T
C1272      N1278   1.157       .  T
C1281      C1282   1.407       .  A
C1281      C1286   1.412       .  A
C1281      C1299   1.450       .  S
C1282      C1287   1.493       .  S
C1282      C1283   1.408       .  A
C1283      C1284   1.409       .  A
C1283      C1288   1.453       .  S
C1284      C1285   1.423       .  A
C1284      C1300   1.452       .  S
C1285      C1286   1.421       .  A
C1286      C1289   1.451       .  S
C1287      C1290   1.410       .  A
C1287      C1294   1.410       .  A
C1288      N1305   1.157       .  T
C1289      N1307   1.157       .  T
C1290      C1291   1.409       .  A
C1290      C1295   1.451       .  S
C1291      C1292   1.414       .  A
C1291      C1297   1.451       .  S
C1292      C1293   1.413       .  A
C1293      C1294   1.411       .  A
C1293      C1296   1.450       .  S
C1294      C1298   1.450       .  S
C1295      N1302   1.157       .  T
C1296      N1303   1.157       .  T
C1297      N1301   1.157       .  T
C1298      N1304   1.157       .  T
C1299      N1308   1.157       .  T
C1300      N1306   1.158       .  T
C1309      C1310   1.410       .  A
C1309      C1314   1.409       .  A
C1309      C1327   1.451       .  S
C1310      C1315   1.488       .  S
C1310      C1311   1.411       .  A
C1311      C1312   1.406       .  A
C1311      C1316   1.452       .  S
C1312      C1313   1.410       .  A
C1312      C1328   1.450       .  S
C1313      C1314   1.412       .  A
C1314      C1317   1.451       .  S
C1315      C1318   1.406       .  A
C1315      C1322   1.405       .  A
C1316      N1333   1.157       .  T
C1317      N1335   1.157       .  T
C1318      C1319   1.410       .  A
C1318      C1323   1.452       .  S
C1319      C1320   1.428       .  A
C1319      C1325   1.453       .  S
C1320      C1321   1.424       .  A
C1321      C1322   1.406       .  A
C1321      C1324   1.451       .  S
C1322      C1326   1.453       .  S
C1323      N1330   1.157       .  T
C1324      N1331   1.157       .  T
C1325      N1329   1.158       .  T
C1326      N1332   1.157       .  T
C1327      N1336   1.157       .  T
C1328      N1334   1.157       .  T
C1337      C1338   1.408       .  A
C1337      C1342   1.411       .  A
C1337      C1355   1.451       .  S
C1338      C1343   1.495       .  S
C1338      C1339   1.410       .  A
C1339      C1340   1.410       .  A
C1339      C1344   1.453       .  S
C1340      C1341   1.420       .  A
C1340      C1356   1.452       .  S
C1341      C1342   1.420       .  A
C1342      C1345   1.450       .  S
C1343      C1346   1.412       .  A
C1343      C1350   1.414       .  A
C1344      N1361   1.157       .  T
C1345      N1363   1.157       .  T
C1346      C1347   1.406   1_655  A
C1346      C1351   1.450       .  S
C1347      C1348   1.407       .  A
C1347      C1353   1.450       .  S
C1348      C1349   1.410       .  A
C1349      C1350   1.411   1_455  A
C1349      C1352   1.450       .  S
C1350      C1354   1.450       .  S
C1351      N1358   1.157       .  T
C1352      N1359   1.157       .  T
C1353      N1357   1.157       .  T
C1354      N1360   1.157       .  T
C1355      N1364   1.157   1_655  T
C1356      N1362   1.158       .  T
C1365      C1366   1.410       .  A
C1365      C1370   1.412       .  A
C1365      C1383   1.451       .  S
C1366      C1371   1.499       .  S
C1366      C1367   1.411       .  A
C1367      C1368   1.413   1_655  A
C1367      C1372   1.450       .  S
C1368      C1369   1.413       .  A
C1368      C1384   1.450       .  S
C1369      C1370   1.414   1_455  A
C1370      C1373   1.449       .  S
C1371      C1374   1.410       .  A
C1371      C1378   1.409       .  A
C1372      N1389   1.157       .  T
C1373      N1391   1.157       .  T
C1374      C1375   1.411       .  A
C1374      C1379   1.451       .  S
C1375      C1376   1.419       .  A
C1375      C1381   1.451       .  S
C1376      C1377   1.422       .  A
C1377      C1378   1.414       .  A
C1377      C1380   1.451       .  S
C1378      C1382   1.451       .  S
C1379      N1386   1.157       .  T
C1380      N1387   1.157       .  T
C1381      N1385   1.157       .  T
C1382      N1388   1.157   1_655  T
C1383      N1392   1.157       .  T
C1384      N1390   1.157       .  T
C1393      C1394   1.410       .  A
C1393      C1398   1.408       .  A
C1393      C1411   1.451       .  S
C1394      C1399   1.492       .  S
C1394      C1395   1.412       .  A
C1395      C1396   1.408       .  A
C1395      C1400   1.450       .  S
C1396      C1397   1.410       .  A
C1396      C1412   1.452       .  S
C1397      C1398   1.412       .  A
C1398      C1401   1.452       .  S
C1399      C1402   1.407       .  A
C1399      C1406   1.406       .  A
C1400      N1417   1.157       .  T
C1401      N1419   1.157       .  T
C1402      C1403   1.408       .  A
C1402      C1407   1.454       .  S
C1403      C1404   1.423       .  A
C1403      C1409   1.450       .  S
C1404      C1405   1.426       .  A
C1405      C1406   1.412       .  A
C1405      C1408   1.452       .  S
C1406      C1410   1.452       .  S
C1407      N1414   1.157       .  T
C1408      N1415   1.158       .  T
C1409      N1413   1.157       .  T
C1410      N1416   1.157       .  T
C1411      N1420   1.157       .  T
C1412      N1418   1.157       .  T
C1421      C1422   1.412       .  A
C1421      C1426   1.412       .  A
C1421      C1439   1.451       .  S
C1422      C1427   1.500       .  S
C1422      C1423   1.412       .  A
C1423      C1424   1.412       .  A
C1423      C1428   1.450       .  S
C1424      C1425   1.412       .  A
C1424      C1440   1.450       .  S
C1425      C1426   1.412       .  A
C1426      C1429   1.450       .  S
C1427      C1430   1.410       .  A
C1427      C1434   1.409       .  A
C1428      N1445   1.157       .  T
C1429      N1447   1.157       .  T
C1430      C1431   1.411       .  A
C1430      C1435   1.452       .  S
C1431      C1432   1.419       .  A
C1431      C1437   1.452       .  S
C1432      C1433   1.421       .  A
C1433      C1434   1.413       .  A
C1433      C1436   1.451       .  S
C1434      C1438   1.451       .  S
C1435      N1442   1.157       .  T
C1436      N1443   1.157       .  T
C1437      N1441   1.157       .  T
C1438      N1444   1.157       .  T
C1439      N1448   1.157       .  T
C1440      N1446   1.157       .  T
C1449      C1450   1.406       .  A
C1449      C1454   1.406       .  A
C1449      C1467   1.452       .  S
C1450      C1455   1.486       .  S
C1450      C1451   1.408       .  A
C1451      C1452   1.406       .  A
C1451      C1456   1.453       .  S
C1452      C1453   1.421       .  A
C1452      C1468   1.453       .  S
C1453      C1454   1.421       .  A
C1454      C1457   1.452       .  S
C1455      C1458   1.412       .  A
C1455      C1462   1.410       .  A
C1456      N1473   1.157       .  T
C1457      N1475   1.157       .  T
C1458      C1459   1.406       .  A
C1458      C1463   1.452       .  S
C1459      C1460   1.409       .  A
C1459      C1465   1.450       .  S
C1460      C1461   1.410       .  A
C1461      C1462   1.406       .  A
C1461      C1464   1.451       .  S
C1462      C1466   1.451       .  S
C1463      N1470   1.157       .  T
C1464      N1471   1.157       .  T
C1465      N1469   1.157       .  T
C1466      N1472   1.157       .  T
C1467      N1476   1.157       .  T
C1468      N1474   1.157       .  T
C1477      C1478   1.411       .  A
C1477      C1482   1.412       .  A
C1477      C1495   1.451       .  S
C1478      C1483   1.499       .  S
C1478      C1479   1.410       .  A
C1479      C1480   1.412       .  A
C1479      C1484   1.451       .  S
C1480      C1481   1.418       .  A
C1480      C1496   1.450       .  S
C1481      C1482   1.415       .  A
C1482      C1485   1.451       .  S
C1483      C1486   1.409       .  A
C1483      C1490   1.408       .  A
C1484      N1501   1.157       .  T
C1485      N1503   1.157       .  T
C1486      C1487   1.415       .  A
C1486      C1491   1.451       .  S
C1487      C1488   1.421       .  A
C1487      C1493   1.451       .  S
C1488      C1489   1.419       .  A
C1489      C1490   1.411       .  A
C1489      C1492   1.448       .  S
C1490      C1494   1.453       .  S
C1491      N1498   1.157       .  T
C1492      N1499   1.156       .  T
C1493      N1497   1.158       .  T
C1494      N1500   1.157       .  T
C1495      N1504   1.157       .  T
C1496      N1502   1.157       .  T
C1505      C1506   1.407       .  A
C1505      C1510   1.408       .  A
C1505      C1523   1.452       .  S
C1506      C1511   1.488       .  S
C1506      C1507   1.407       .  A
C1507      C1508   1.406       .  A
C1507      C1512   1.452       .  S
C1508      C1509   1.420       .  A
C1508      C1524   1.452       .  S
C1509      C1510   1.422       .  A
C1510      C1513   1.452       .  S
C1511      C1514   1.410       .  A
C1511      C1518   1.411       .  A
C1512      N1529   1.157       .  T
C1513      N1531   1.157       .  T
C1514      C1515   1.405       .  A
C1514      C1519   1.451       .  S
C1515      C1516   1.410       .  A
C1515      C1521   1.450       .  S
C1516      C1517   1.410       .  A
C1517      C1518   1.408       .  A
C1517      C1520   1.451       .  S
C1518      C1522   1.451       .  S
C1519      N1526   1.157       .  T
C1520      N1527   1.157       .  T
C1521      N1525   1.157       .  T
C1522      N1528   1.157       .  T
C1523      N1532   1.157       .  T
C1524      N1530   1.157       .  T
C1533      C1534   1.413       .  A
C1533      C1538   1.409       .  A
C1533      C1551   1.451       .  S
C1534      C1539   1.494       .  S
C1534      C1535   1.412       .  A
C1535      C1536   1.408       .  A
C1535      C1540   1.451       .  S
C1536      C1537   1.410       .  A
C1536      C1552   1.450       .  S
C1537      C1538   1.412       .  A
C1538      C1541   1.451       .  S
C1539      C1542   1.410       .  A
C1539      C1546   1.409       .  A
C1540      N1557   1.157       .  T
C1541      N1559   1.157       .  T
C1542      C1543   1.408       .  A
C1542      C1547   1.452       .  S
C1543      C1544   1.417       .  A
C1543      C1549   1.451       .  S
C1544      C1545   1.419       .  A
C1545      C1546   1.411       .  A
C1545      C1548   1.450       .  S
C1546      C1550   1.452       .  S
C1547      N1554   1.157       .  T
C1548      N1555   1.157       .  T
C1549      N1553   1.157       .  T
C1550      N1556   1.157       .  T
C1551      N1560   1.157       .  T
C1552      N1558   1.157       .  T
C1561      C1562   1.409       .  A
C1561      C1566   1.410       .  A
C1561      C1579   1.452       .  S
C1562      C1567   1.494       .  S
C1562      C1563   1.411       .  A
C1563      C1564   1.409       .  A
C1563      C1568   1.451       .  S
C1564      C1565   1.414       .  A
C1564      C1580   1.451       .  S
C1565      C1566   1.416       .  A
C1566      C1569   1.446       .  S
C1567      C1570   1.411       .  A
C1567      C1574   1.411       .  A
C1568      N1585   1.157       .  T
C1569      N1587   1.155       .  T
C1570      C1571   1.408       .  A
C1570      C1575   1.452       .  S
C1571      C1572   1.416       .  A
C1571      C1577   1.452       .  S
C1572      C1573   1.415       .  A
C1573      C1574   1.410       .  A
C1573      C1576   1.450       .  S
C1574      C1578   1.451       .  S
C1575      N1582   1.157       .  T
C1576      N1583   1.157       .  T
C1577      N1581   1.157       .  T
C1578      N1584   1.157       .  T
C1579      N1588   1.157       .  T
C1580      N1586   1.157       .  T
C1589      C1590   1.408       .  A
C1589      C1594   1.408       .  A
C1589      C1607   1.451       .  S
C1590      C1595   1.487       .  S
C1590      C1591   1.409       .  A
C1591      C1592   1.408       .  A
C1591      C1596   1.452       .  S
C1592      C1593   1.415       .  A
C1592      C1608   1.450       .  S
C1593      C1594   1.416       .  A
C1594      C1597   1.451       .  S
C1595      C1598   1.409       .  A
C1595      C1602   1.408       .  A
C1596      N1613   1.157       .  T
C1597      N1615   1.157       .  T
C1598      C1599   1.410       .  A
C1598      C1603   1.450       .  S
C1599      C1600   1.415       .  A
C1599      C1605   1.450       .  S
C1600      C1601   1.415       .  A
C1601      C1602   1.404       .  A
C1601      C1604   1.449       .  S
C1602      C1606   1.453       .  S
C1603      N1610   1.157       .  T
C1604      N1611   1.156       .  T
C1605      N1609   1.157       .  T
C1606      N1612   1.157       .  T
C1607      N1616   1.157       .  T
C1608      N1614   1.157       .  T
C1617      C1618   1.409       .  A
C1617      C1622   1.410       .  A
C1617      C1635   1.452       .  S
C1618      C1623   1.499       .  S
C1618      C1619   1.409       .  A
C1619      C1620   1.416       .  A
C1619      C1624   1.451       .  S
C1620      C1621   1.420       .  A
C1620      C1636   1.449       .  S
C1621      C1622   1.418       .  A
C1622      C1625   1.450       .  S
C1623      C1626   1.410       .  A
C1623      C1630   1.411       .  A
C1624      N1641   1.157       .  T
C1625      N1643   1.157       .  T
C1626      C1627   1.411       .  A
C1626      C1631   1.451       .  S
C1627      C1628   1.416       .  A
C1627      C1633   1.451       .  S
C1628      C1629   1.417       .  A
C1629      C1630   1.414       .  A
C1629      C1632   1.451       .  S
C1630      C1634   1.450       .  S
C1631      N1638   1.157       .  T
C1632      N1639   1.158       .  T
C1633      N1637   1.157       .  T
C1634      N1640   1.157       .  T
C1635      N1644   1.157       .  T
C1636      N1642   1.157       .  T
C1645      C1646   1.408       .  A
C1645      C1650   1.406       .  A
C1645      C1663   1.453       .  S
C1646      C1651   1.490       .  S
C1646      C1647   1.409       .  A
C1647      C1648   1.411       .  A
C1647      C1652   1.450       .  S
C1648      C1649   1.416       .  A
C1648      C1664   1.451       .  S
C1649      C1650   1.416       .  A
C1650      C1653   1.452       .  S
C1651      C1654   1.410       .  A
C1651      C1658   1.407       .  A
C1652      N1669   1.157       .  T
C1653      N1671   1.157       .  T
C1654      C1655   1.410       .  A
C1654      C1659   1.451       .  S
C1655      C1656   1.415       .  A
C1655      C1661   1.449       .  S
C1656      C1657   1.416       .  A
C1657      C1658   1.407       .  A
C1657      C1660   1.449       .  S
C1658      C1662   1.452       .  S
C1659      N1666   1.157       .  T
C1660      N1667   1.156       .  T
C1661      N1665   1.156       .  T
C1662      N1668   1.157       .  T
C1663      N1672   1.157       .  T
C1664      N1670   1.158       .  T
C1673      C1674   1.408       .  A
C1673      C1678   1.407       .  A
C1673      C1691   1.451       .  S
C1674      C1679   1.486       .  S
C1674      C1675   1.409       .  A
C1675      C1676   1.407       .  A
C1675      C1680   1.452       .  S
C1676      C1677   1.413       .  A
C1676      C1692   1.449       .  S
C1677      C1678   1.415       .  A
C1678      C1681   1.450       .  S
C1679      C1682   1.405       .  A
C1679      C1686   1.408       .  A
C1680      N1697   1.157       .  T
C1681      N1699   1.157       .  T
C1682      C1683   1.406       .  A
C1682      C1687   1.452       .  S
C1683      C1684   1.418       .  A
C1683      C1689   1.449       .  S
C1684      C1685   1.419       .  A
C1685      C1686   1.407       .  A
C1685      C1688   1.453       .  S
C1686      C1690   1.452       .  S
C1687      N1694   1.157       .  T
C1688      N1695   1.158       .  T
C1689      N1693   1.156       .  T
C1690      N1696   1.157       .  T
C1691      N1700   1.157       .  T
C1692      N1698   1.157       .  T
C1701      C1702   1.409       .  A
C1701      C1706   1.408       .  A
C1701      C1719   1.451       .  S
C1702      C1707   1.495       .  S
C1702      C1703   1.411       .  A
C1703      C1704   1.412       .  A
C1703      C1708   1.451       .  S
C1704      C1705   1.416       .  A
C1704      C1720   1.451       .  S
C1705      C1706   1.415       .  A
C1706      C1709   1.451       .  S
C1707      C1710   1.408       .  A
C1707      C1714   1.411       .  A
C1708      N1725   1.157       .  T
C1709      N1727   1.157       .  T
C1710      C1711   1.409       .  A
C1710      C1715   1.453       .  S
C1711      C1712   1.417       .  A
C1711      C1717   1.449       .  S
C1712      C1713   1.416       .  A
C1713      C1714   1.413       .  A
C1713      C1716   1.451       .  S
C1714      C1718   1.450       .  S
C1715      N1722   1.157       .  T
C1716      N1723   1.157       .  T
C1717      N1721   1.156       .  T
C1718      N1724   1.157       .  T
C1719      N1728   1.157       .  T
C1720      N1726   1.157       .  T
C1729      C1730   1.407       .  A
C1729      C1734   1.410       .  A
C1729      C1747   1.451       .  S
C1730      C1735   1.493       .  S
C1730      C1731   1.409       .  A
C1731      C1732   1.409       .  A
C1731      C1736   1.452       .  S
C1732      C1733   1.418       .  A
C1732      C1748   1.450       .  S
C1733      C1734   1.422       .  A
C1734      C1737   1.453       .  S
C1735      C1738   1.410       .  A
C1735      C1742   1.408       .  A
C1736      N1753   1.157       .  T
C1737      N1755   1.158       .  T
C1738      C1739   1.413       .  A
C1738      C1743   1.451       .  S
C1739      C1740   1.415       .  A
C1739      C1745   1.449       .  S
C1740      C1741   1.415       .  A
C1741      C1742   1.407       .  A
C1741      C1744   1.451       .  S
C1742      C1746   1.452       .  S
C1743      N1750   1.157       .  T
C1744      N1751   1.157       .  T
C1745      N1749   1.157       .  T
C1746      N1752   1.157       .  T
C1747      N1756   1.157       .  T
C1748      N1754   1.157       .  T
C1757      C1758   1.408       .  A
C1757      C1762   1.407       .  A
C1757      C1775   1.451       .  S
C1758      C1763   1.490       .  S
C1758      C1759   1.410       .  A
C1759      C1760   1.409       .  A
C1759      C1764   1.450       .  S
C1760      C1761   1.412       .  A
C1760      C1776   1.451       .  S
C1761      C1762   1.413       .  A
C1762      C1765   1.451       .  S
C1763      C1766   1.405       .  A
C1763      C1770   1.408       .  A
C1764      N1781   1.157       .  T
C1765      N1783   1.157       .  T
C1766      C1767   1.412       .  A
C1766      C1771   1.451       .  S
C1767      C1768   1.424       .  A
C1767      C1773   1.450       .  S
C1768      C1769   1.421       .  A
C1769      C1770   1.407       .  A
C1769      C1772   1.452       .  S
C1770      C1774   1.453       .  S
C1771      N1778   1.157       .  T
C1772      N1779   1.157       .  T
C1773      N1777   1.157       .  T
C1774      N1780   1.157       .  T
C1775      N1784   1.157       .  T
C1776      N1782   1.157       .  T
C1785      C1786   1.406       .  A
C1785      C1790   1.409       .  A
C1785      C1803   1.452       .  S
C1786      C1791   1.493       .  S
C1786      C1787   1.409       .  A
C1787      C1788   1.412       .  A
C1787      C1792   1.451       .  S
C1788      C1789   1.419       .  A
C1788      C1804   1.451       .  S
C1789      C1790   1.422       .  A
C1790      C1793   1.453       .  S
C1791      C1794   1.410       .  A
C1791      C1798   1.409       .  A
C1792      N1809   1.157       .  T
C1793      N1811   1.158       .  T
C1794      C1795   1.409       .  A
C1794      C1799   1.452       .  S
C1795      C1796   1.416       .  A
C1795      C1801   1.452       .  S
C1796      C1797   1.414       .  A
C1797      C1798   1.410       .  A
C1797      C1800   1.450       .  S
C1798      C1802   1.450       .  S
C1799      N1806   1.157       .  T
C1800      N1807   1.157       .  T
C1801      N1805   1.157       .  T
C1802      N1808   1.157       .  T
C1803      N1812   1.157       .  T
C1804      N1810   1.158       .  T
C1813      C1814   1.408       .  A
C1813      C1818   1.413       .  A
C1813      C1831   1.451       .  S
C1814      C1819   1.490       .  S
C1814      C1815   1.407       .  A
C1815      C1816   1.405       .  A
C1815      C1820   1.454       .  S
C1816      C1817   1.422       .  A
C1816      C1832   1.453       .  S
C1817      C1818   1.421       .  A
C1818      C1821   1.450       .  S
C1819      C1822   1.411       .  A
C1819      C1826   1.414       .  A
C1820      N1837   1.157       .  T
C1821      N1839   1.158       .  T
C1822      C1823   1.404       .  A
C1822      C1827   1.450       .  S
C1823      C1824   1.408       .  A
C1823      C1829   1.452       .  S
C1824      C1825   1.408       .  A
C1825      C1826   1.408       .  A
C1825      C1828   1.452       .  S
C1826      C1830   1.450       .  S
C1827      N1834   1.157       .  T
C1828      N1835   1.158       .  T
C1829      N1833   1.157       .  T
C1830      N1836   1.157       .  T
C1831      N1840   1.157       .  T
C1832      N1838   1.157       .  T
C1841      C1842   1.407       .  A
C1841      C1846   1.411       .  A
C1841      C1859   1.452       .  S
C1842      C1847   1.494       .  S
C1842      C1843   1.408       .  A
C1843      C1844   1.411       .  A
C1843      C1848   1.452       .  S
C1844      C1845   1.421       .  A
C1844      C1860   1.451       .  S
C1845      C1846   1.423       .  A
C1846      C1849   1.451       .  S
C1847      C1850   1.411       .  A
C1847      C1854   1.408       .  A
C1848      N1865   1.157       .  T
C1849      N1867   1.158       .  T
C1850      C1851   1.411       .  A
C1850      C1855   1.450       .  S
C1851      C1852   1.413       .  A
C1851      C1857   1.450       .  S
C1852      C1853   1.415       .  A
C1853      C1854   1.409       .  A
C1853      C1856   1.449       .  S
C1854      C1858   1.451       .  S
C1855      N1862   1.157       .  T
C1856      N1863   1.156       .  T
C1857      N1861   1.157       .  T
C1858      N1864   1.157       .  T
C1859      N1868   1.157       .  T
C1860      N1866   1.157       .  T
C1869      C1870   1.409       .  A
C1869      C1874   1.408       .  A
C1869      C1887   1.451       .  S
C1870      C1875   1.488       .  S
C1870      C1871   1.406       .  A
C1871      C1872   1.407       .  A
C1871      C1876   1.452       .  S
C1872      C1873   1.418       .  A
C1872      C1888   1.450       .  S
C1873      C1874   1.415       .  A
C1874      C1877   1.450       .  S
C1875      C1878   1.408       .  A
C1875      C1882   1.408       .  A
C1876      N1893   1.157       .  T
C1877      N1895   1.157       .  T
C1878      C1879   1.409       .  A
C1878      C1883   1.452       .  S
C1879      C1880   1.420       .  A
C1879      C1885   1.451       .  S
C1880      C1881   1.417       .  A
C1881      C1882   1.407       .  A
C1881      C1884   1.452       .  S
C1882      C1886   1.452       .  S
C1883      N1890   1.157       .  T
C1884      N1891   1.157       .  T
C1885      N1889   1.158       .  T
C1886      N1892   1.157       .  T
C1887      N1896   1.157       .  T
C1888      N1894   1.156       .  T
C1897      C1898   1.410       .  A
C1897      C1902   1.409       .  A
C1897      C1915   1.452       .  S
C1898      C1903   1.492       .  S
C1898      C1899   1.408       .  A
C1899      C1900   1.409       .  A
C1899      C1904   1.451       .  S
C1900      C1901   1.417       .  A
C1900      C1916   1.450       .  S
C1901      C1902   1.416       .  A
C1902      C1905   1.451       .  S
C1903      C1906   1.409       .  A
C1903      C1910   1.409       .  A
C1904      N1921   1.157       .  T
C1905      N1923   1.157       .  T
C1906      C1907   1.410       .  A
C1906      C1911   1.451       .  S
C1907      C1908   1.416       .  A
C1907      C1913   1.450       .  S
C1908      C1909   1.416       .  A
C1909      C1910   1.409       .  A
C1909      C1912   1.451       .  S
C1910      C1914   1.452       .  S
C1911      N1918   1.157       .  T
C1912      N1919   1.157       .  T
C1913      N1917   1.157       .  T
C1914      N1920   1.157       .  T
C1915      N1924   1.157       .  T
C1916      N1922   1.157       .  T
C1925      C1926   1.409       .  A
C1925      C1930   1.407       .  A
C1925      C1943   1.451       .  S
C1926      C1931   1.493       .  S
C1926      C1927   1.409       .  A
C1927      C1928   1.413       .  A
C1927      C1932   1.451       .  S
C1928      C1929   1.418       .  A
C1928      C1944   1.448       .  S
C1929      C1930   1.413       .  A
C1930      C1933   1.450       .  S
C1931      C1934   1.409       .  A
C1931      C1938   1.408       .  A
C1932      N1949   1.157       .  T
C1933      N1951   1.157       .  T
C1934      C1935   1.412       .  A
C1934      C1939   1.451       .  S
C1935      C1936   1.417       .  A
C1935      C1941   1.450       .  S
C1936      C1937   1.418       .  A
C1937      C1938   1.409       .  A
C1937      C1940   1.451       .  S
C1938      C1942   1.452       .  S
C1939      N1946   1.157       .  T
C1940      N1947   1.157       .  T
C1941      N1945   1.157       .  T
C1942      N1948   1.157       .  T
C1943      N1952   1.157       .  T
C1944      N1950   1.156       .  T
C1953      C1954   1.407       .  A
C1953      C1958   1.406       .  A
C1953      C1971   1.451       .  S
C1954      C1959   1.493       .  S
C1954      C1955   1.410       .  A
C1955      C1956   1.412       .  A
C1955      C1960   1.450       .  S
C1956      C1957   1.416       .  A
C1956      C1972   1.451       .  S
C1957      C1958   1.415       .  A
C1958      C1961   1.448       .  S
C1959      C1962   1.411       .  A
C1959      C1966   1.408       .  A
C1960      N1977   1.157       .  T
C1961      N1979   1.156       .  T
C1962      C1963   1.413       .  A
C1962      C1967   1.450       .  S
C1963      C1964   1.415       .  A
C1963      C1969   1.451       .  S
C1964      C1965   1.418       .  A
C1965      C1966   1.407       .  A
C1965      C1968   1.452       .  S
C1966      C1970   1.452       .  S
C1967      N1974   1.157       .  T
C1968      N1975   1.157       .  T
C1969      N1973   1.157       .  T
C1970      N1976   1.157       .  T
C1971      N1980   1.157       .  T
C1972      N1978   1.157       .  T
C1981      C1982   1.409       .  A
C1981      C1986   1.404       .  A
C1981      C1999   1.452       .  S
C1982      C1987   1.482       .  S
C1982      C1983   1.408       .  A
C1983      C1984   1.406       .  A
C1983      C1988   1.451       .  S
C1984      C1985   1.413       .  A
C1984      C2000   1.451       .  S
C1985      C1986   1.410       .  A
C1986      C1989   1.451       .  S
C1987      C1990   1.405       .  A
C1987      C1994   1.407       .  A
C1988      N2005   1.157       .  T
C1989      N2007   1.157       .  T
C1990      C1991   1.406       .  A
C1990      C1995   1.452       .  S
C1991      C1992   1.422       .  A
C1991      C1997   1.452       .  S
C1992      C1993   1.420       .  A
C1993      C1994   1.406       .  A
C1993      C1996   1.453       .  S
C1994      C1998   1.452       .  S
C1995      N2002   1.157       .  T
C1996      N2003   1.157       .  T
C1997      N2001   1.158       .  T
C1998      N2004   1.157       .  T
C1999      N2008   1.157       .  T
C2000      N2006   1.157       .  T
C2009      C2010   1.411       .  A
C2009      C2014   1.412       .  A
C2009      C2027   1.448       .  S
C2010      C2015   1.500       .  S
C2010      C2011   1.410       .  A
C2011      C2012   1.411       .  A
C2011      C2016   1.450       .  S
C2012      C2013   1.416       .  A
C2012      C2028   1.451       .  S
C2013      C2014   1.414       .  A
C2014      C2017   1.451       .  S
C2015      C2018   1.409       .  A
C2015      C2022   1.409       .  A
C2016      N2033   1.157       .  T
C2017      N2035   1.157       .  T
C2018      C2019   1.415       .  A
C2018      C2023   1.451       .  S
C2019      C2020   1.422       .  A
C2019      C2025   1.451       .  S
C2020      C2021   1.420       .  A
C2021      C2022   1.411       .  A
C2021      C2024   1.450       .  S
C2022      C2026   1.451       .  S
C2023      N2030   1.157       .  T
C2024      N2031   1.157       .  T
C2025      N2029   1.157       .  T
C2026      N2032   1.157       .  T
C2027      N2036   1.156       .  T
C2028      N2034   1.157       .  T
C2037      C2038   1.410       .  A
C2037      C2042   1.408       .  A
C2037      C2055   1.451       .  S
C2038      C2043   1.493       .  S
C2038      C2039   1.409       .  A
C2039      C2040   1.412       .  A
C2039      C2044   1.450       .  S
C2040      C2041   1.415       .  A
C2040      C2056   1.449       .  S
C2041      C2042   1.414       .  A
C2042      C2045   1.452       .  S
C2043      C2046   1.406       .  A
C2043      C2050   1.407       .  A
C2044      N2061   1.157       .  T
C2045      N2063   1.157       .  T
C2046      C2047   1.412       .  A
C2046      C2051   1.451       .  S
C2047      C2048   1.425       .  A
C2047      C2053   1.452       .  S
C2048      C2049   1.420       .  A
C2049      C2050   1.408       .  A
C2049      C2052   1.451       .  S
C2050      C2054   1.452       .  S
C2051      N2058   1.157       .  T
C2052      N2059   1.157       .  T
C2053      N2057   1.158       .  T
C2054      N2060   1.157       .  T
C2055      N2064   1.157       .  T
C2056      N2062   1.157       .  T
C2065      C2066   1.407       .  A
C2065      C2070   1.406       .  A
C2065      C2083   1.453       .  S
C2066      C2071   1.493       .  S
C2066      C2067   1.409       .  A
C2067      C2068   1.414       .  A
C2067      C2072   1.451       .  S
C2068      C2069   1.423       .  A
C2068      C2084   1.451       .  S
C2069      C2070   1.422       .  A
C2070      C2073   1.452       .  S
C2071      C2074   1.412       .  A
C2071      C2078   1.411       .  A
C2072      N2089   1.157       .  T
C2073      N2091   1.157       .  T
C2074      C2075   1.409       .  A
C2074      C2079   1.450       .  S
C2075      C2076   1.410       .  A
C2075      C2081   1.451       .  S
C2076      C2077   1.411       .  A
C2077      C2078   1.408       .  A
C2077      C2080   1.451       .  S
C2078      C2082   1.450       .  S
C2079      N2086   1.157       .  T
C2080      N2087   1.157       .  T
C2081      N2085   1.157       .  T
C2082      N2088   1.157       .  T
C2083      N2092   1.157       .  T
C2084      N2090   1.158       .  T
C2093      C2094   1.411       .  A
C2093      C2098   1.415   1_655  A
C2093      C2111   1.450       .  S
C2094      C2099   1.499       .  S
C2094      C2095   1.408   1_655  A
C2095      C2096   1.411       .  A
C2095      C2100   1.451       .  S
C2096      C2097   1.419       .  A
C2096      C2112   1.451       .  S
C2097      C2098   1.419       .  A
C2098      C2101   1.451       .  S
C2099      C2102   1.410       .  A
C2099      C2106   1.412       .  A
C2100      N2117   1.157       .  T
C2101      N2119   1.158       .  T
C2102      C2103   1.413       .  A
C2102      C2107   1.450       .  S
C2103      C2104   1.417       .  A
C2103      C2109   1.450       .  S
C2104      C2105   1.415       .  A
C2105      C2106   1.412       .  A
C2105      C2108   1.451       .  S
C2106      C2110   1.451       .  S
C2107      N2114   1.157       .  T
C2108      N2115   1.157       .  T
C2109      N2113   1.157       .  T
C2110      N2116   1.157   1_655  T
C2111      N2120   1.157       .  T
C2112      N2118   1.157       .  T
C2121      C2122   1.410       .  A
C2121      C2126   1.408       .  A
C2121      C2139   1.451       .  S
C2122      C2127   1.486       .  S
C2122      C2123   1.408       .  A
C2123      C2124   1.406       .  A
C2123      C2128   1.451       .  S
C2124      C2125   1.414       .  A
C2124      C2140   1.452       .  S
C2125      C2126   1.413       .  A
C2126      C2129   1.450       .  S
C2127      C2130   1.406       .  A
C2127      C2134   1.407       .  A
C2128      N2145   1.157       .  T
C2129      N2147   1.157       .  T
C2130      C2131   1.408       .  A
C2130      C2135   1.452       .  S
C2131      C2132   1.421       .  A
C2131      C2137   1.451       .  S
C2132      C2133   1.421       .  A
C2133      C2134   1.406       .  A
C2133      C2136   1.453       .  S
C2134      C2138   1.452       .  S
C2135      N2142   1.157       .  T
C2136      N2143   1.157       .  T
C2137      N2141   1.157       .  T
C2138      N2144   1.157       .  T
C2139      N2148   1.157       .  T
C2140      N2146   1.157       .  T
C2149      C2150   1.407       .  A
C2149      C2154   1.409       .  A
C2149      C2167   1.452       .  S
C2150      C2155   1.493       .  S
C2150      C2151   1.409       .  A
C2151      C2152   1.411       .  A
C2151      C2156   1.451       .  S
C2152      C2153   1.417       .  A
C2152      C2168   1.451       .  S
C2153      C2154   1.420       .  A
C2154      C2157   1.450       .  S
C2155      C2158   1.409   1_655  A
C2155      C2162   1.411       .  A
C2156      N2173   1.157       .  T
C2157      N2175   1.156       .  T
C2158      C2159   1.408       .  A
C2158      C2163   1.452       .  S
C2159      C2160   1.418       .  A
C2159      C2165   1.453       .  S
C2160      C2161   1.413       .  A
C2161      C2162   1.412   1_455  A
C2161      C2164   1.450       .  S
C2162      C2166   1.450       .  S
C2163      N2170   1.157       .  T
C2164      N2171   1.157       .  T
C2165      N2169   1.158       .  T
C2166      N2172   1.157       .  T
C2167      N2176   1.157   1_655  T
C2168      N2174   1.157       .  T
C2177      C2178   1.409       .  A
C2177      C2182   1.408   1_655  A
C2177      C2195   1.451       .  S
C2178      C2183   1.491       .  S
C2178      C2179   1.410   1_655  A
C2179      C2180   1.409       .  A
C2179      C2184   1.451       .  S
C2180      C2181   1.413       .  A
C2180      C2196   1.451       .  S
C2181      C2182   1.414       .  A
C2182      C2185   1.451       .  S
C2183      C2186   1.410       .  A
C2183      C2190   1.407       .  A
C2184      N2201   1.157   1_455  T
C2185      N2203   1.157       .  T
C2186      C2187   1.409       .  A
C2186      C2191   1.451       .  S
C2187      C2188   1.416       .  A
C2187      C2193   1.452       .  S
C2188      C2189   1.420       .  A
C2189      C2190   1.409       .  A
C2189      C2192   1.450       .  S
C2190      C2194   1.452       .  S
C2191      N2198   1.157   1_655  T
C2192      N2199   1.157       .  T
C2193      N2197   1.157       .  T
C2194      N2200   1.157       .  T
C2195      N2204   1.157       .  T
C2196      N2202   1.157       .  T
C2205      C2206   1.408       .  A
C2205      C2210   1.409       .  A
C2205      C2223   1.453       .  S
C2206      C2211   1.494       .  S
C2206      C2207   1.408       .  A
C2207      C2208   1.412       .  A
C2207      C2212   1.451       .  S
C2208      C2209   1.419       .  A
C2208      C2224   1.451       .  S
C2209      C2210   1.420       .  A
C2210      C2213   1.450       .  S
C2211      C2214   1.410       .  A
C2211      C2218   1.409       .  A
C2212      N2229   1.157       .  T
C2213      N2231   1.157       .  T
C2214      C2215   1.413       .  A
C2214      C2219   1.450       .  S
C2215      C2216   1.417       .  A
C2215      C2221   1.451       .  S
C2216      C2217   1.419       .  A
C2217      C2218   1.407       .  A
C2217      C2220   1.453       .  S
C2218      C2222   1.453       .  S
C2219      N2226   1.157       .  T
C2220      N2227   1.158       .  T
C2221      N2225   1.157       .  T
C2222      N2228   1.157       .  T
C2223      N2232   1.157       .  T
C2224      N2230   1.157       .  T
C2233      C2234   1.410       .  A
C2233      C2238   1.410   1_655  A
C2233      C2251   1.450       .  S
C2234      C2239   1.492       .  S
C2234      C2235   1.410       .  A
C2235      C2236   1.408   1_655  A
C2235      C2240   1.452       .  S
C2236      C2237   1.414       .  A
C2236      C2252   1.451       .  S
C2237      C2238   1.414       .  A
C2238      C2241   1.450       .  S
C2239      C2242   1.409       .  A
C2239      C2246   1.409       .  A
C2240      N2257   1.157       .  T
C2241      N2259   1.157       .  T
C2242      C2243   1.407       .  A
C2242      C2247   1.451       .  S
C2243      C2244   1.416       .  A
C2243      C2249   1.450       .  S
C2244      C2245   1.417       .  A
C2245      C2246   1.410       .  A
C2245      C2248   1.450       .  S
C2246      C2250   1.451       .  S
C2247      N2254   1.157   1_655  T
C2248      N2255   1.157       .  T
C2249      N2253   1.157       .  T
C2250      N2256   1.157       .  T
C2251      N2260   1.157       .  T
C2252      N2258   1.157       .  T
C2261      C2262   1.411       .  A
C2261      C2266   1.413       .  A
C2261      C2279   1.451       .  S
C2262      C2267   1.498       .  S
C2262      C2263   1.410       .  A
C2263      C2264   1.410       .  A
C2263      C2268   1.452       .  S
C2264      C2265   1.417       .  A
C2264      C2280   1.452       .  S
C2265      C2266   1.415       .  A
C2266      C2269   1.449       .  S
C2267      C2270   1.411       .  A
C2267      C2274   1.411       .  A
C2268      N2285   1.157       .  T
C2269      N2287   1.157       .  T
C2270      C2271   1.411       .  A
C2270      C2275   1.451       .  S
C2271      C2272   1.415       .  A
C2271      C2277   1.451       .  S
C2272      C2273   1.416       .  A
C2273      C2274   1.412       .  A
C2273      C2276   1.450       .  S
C2274      C2278   1.451       .  S
C2275      N2282   1.157       .  T
C2276      N2283   1.157       .  T
C2277      N2281   1.157       .  T
C2278      N2284   1.157       .  T
C2279      N2288   1.157       .  T
C2280      N2286   1.157       .  T
C2289      C2290   1.408       .  A
C2289      C2294   1.408       .  A
C2289      C2307   1.452       .  S
C2290      C2295   1.491       .  S
C2290      C2291   1.410       .  A
C2291      C2292   1.410       .  A
C2291      C2296   1.451       .  S
C2292      C2293   1.416       .  A
C2292      C2308   1.451       .  S
C2293      C2294   1.418       .  A
C2294      C2297   1.452       .  S
C2295      C2298   1.409       .  A
C2295      C2302   1.409       .  A
C2296      N2313   1.157       .  T
C2297      N2315   1.157       .  T
C2298      C2299   1.411       .  A
C2298      C2303   1.451       .  S
C2299      C2300   1.415       .  A
C2299      C2305   1.449       .  S
C2300      C2301   1.414       .  A
C2301      C2302   1.407       .  A
C2301      C2304   1.449       .  S
C2302      C2306   1.452       .  S
C2303      N2310   1.157       .  T
C2304      N2311   1.156       .  T
C2305      N2309   1.157       .  T
C2306      N2312   1.157       .  T
C2307      N2316   1.157       .  T
C2308      N2314   1.157       .  T
C2317      C2318   1.412       .  A
C2317      C2322   1.408   1_655  A
C2317      C2335   1.451       .  S
C2318      C2323   1.493       .  S
C2318      C2319   1.413       .  A
C2319      C2320   1.408   1_655  A
C2319      C2324   1.451       .  S
C2320      C2321   1.409       .  A
C2320      C2336   1.451       .  S
C2321      C2322   1.410       .  A
C2322      C2325   1.451       .  S
C2323      C2326   1.408       .  A
C2323      C2330   1.408       .  A
C2324      N2341   1.157       .  T
C2325      N2343   1.157       .  T
C2326      C2327   1.406       .  A
C2326      C2331   1.453       .  S
C2327      C2328   1.423       .  A
C2327      C2333   1.453       .  S
C2328      C2329   1.424       .  A
C2329      C2330   1.411       .  A
C2329      C2332   1.452       .  S
C2330      C2334   1.452       .  S
C2331      N2338   1.157   1_655  T
C2332      N2339   1.158       .  T
C2333      N2337   1.157       .  T
C2334      N2340   1.157       .  T
C2335      N2344   1.157       .  T
C2336      N2342   1.157       .  T
C2345      C2346   1.411       .  A
C2345      C2350   1.411       .  A
C2345      C2363   1.451       .  S
C2346      C2351   1.498       .  S
C2346      C2347   1.409       .  A
C2347      C2348   1.410       .  A
C2347      C2352   1.452       .  S
C2348      C2349   1.420       .  A
C2348      C2364   1.449       .  S
C2349      C2350   1.419       .  A
C2350      C2353   1.452       .  S
C2351      C2354   1.412       .  A
C2351      C2358   1.412       .  A
C2352      N2369   1.157       .  T
C2353      N2371   1.158       .  T
C2354      C2355   1.409       .  A
C2354      C2359   1.451       .  S
C2355      C2356   1.411       .  A
C2355      C2361   1.450       .  S
C2356      C2357   1.413       .  A
C2357      C2358   1.412       .  A
C2357      C2360   1.450       .  S
C2358      C2362   1.451       .  S
C2359      N2366   1.157       .  T
C2360      N2367   1.157       .  T
C2361      N2365   1.157       .  T
C2362      N2368   1.157       .  T
C2363      N2372   1.157       .  T
C2364      N2370   1.156       .  T
C2373      C2374   1.409   1_455  A
C2373      C2378   1.413       .  A
C2373      C2391   1.453       .  S
C2374      C2379   1.498       .  S
C2374      C2375   1.409       .  A
C2375      C2376   1.413   1_655  A
C2375      C2380   1.450       .  S
C2376      C2377   1.419       .  A
C2376      C2392   1.451       .  S
C2377      C2378   1.421       .  A
C2378      C2381   1.450       .  S
C2379      C2382   1.409       .  A
C2379      C2386   1.409       .  A
C2380      N2397   1.157       .  T
C2381      N2399   1.157       .  T
C2382      C2383   1.410       .  A
C2382      C2387   1.451       .  S
C2383      C2384   1.419       .  A
C2383      C2389   1.452       .  S
C2384      C2385   1.420       .  A
C2385      C2386   1.413       .  A
C2385      C2388   1.451       .  S
C2386      C2390   1.451       .  S
C2387      N2394   1.157   1_655  T
C2388      N2395   1.157       .  T
C2389      N2393   1.157       .  T
C2390      N2396   1.157       .  T
C2391      N2400   1.158   1_455  T
C2392      N2398   1.157       .  T
C2401      C2402   1.410       .  A
C2401      C2406   1.409       .  A
C2401      C2419   1.451       .  S
C2402      C2407   1.498       .  S
C2402      C2403   1.412       .  A
C2403      C2404   1.411       .  A
C2403      C2408   1.450       .  S
C2404      C2405   1.412       .  A
C2404      C2420   1.448       .  S
C2405      C2406   1.417       .  A
C2406      C2409   1.451       .  S
C2407      C2410   1.410       .  A
C2407      C2414   1.410       .  A
C2408      N2425   1.157       .  T
C2409      N2427   1.157       .  T
C2410      C2411   1.413       .  A
C2410      C2415   1.451       .  S
C2411      C2412   1.417       .  A
C2411      C2417   1.450       .  S
C2412      C2413   1.418       .  A
C2413      C2414   1.412       .  A
C2413      C2416   1.449       .  S
C2414      C2418   1.452       .  S
C2415      N2422   1.157       .  T
C2416      N2423   1.157       .  T
C2417      N2421   1.157       .  T
C2418      N2424   1.157       .  T
C2419      N2428   1.157       .  T
C2420      N2426   1.156       .  T
C2429      C2430   1.409       .  A
C2429      C2434   1.416       .  A
C2429      C2447   1.450       .  S
C2430      C2435   1.497       .  S
C2430      C2431   1.406       .  A
C2431      C2432   1.409       .  A
C2431      C2436   1.454       .  S
C2432      C2433   1.423       .  A
C2432      C2448   1.446       .  S
C2433      C2434   1.424       .  A
C2434      C2437   1.451       .  S
C2435      C2438   1.412       .  A
C2435      C2442   1.412       .  A
C2436      N2453   1.157   1_655  T
C2437      N2455   1.158       .  T
C2438      C2439   1.409   1_655  A
C2438      C2443   1.450       .  S
C2439      C2440   1.410       .  A
C2439      C2445   1.450       .  S
C2440      C2441   1.412       .  A
C2441      C2442   1.411   1_455  A
C2441      C2444   1.451       .  S
C2442      C2446   1.450       .  S
C2443      N2450   1.157       .  T
C2444      N2451   1.157       .  T
C2445      N2449   1.157       .  T
C2446      N2452   1.157       .  T
C2447      N2456   1.157       .  T
C2448      N2454   1.155       .  T
C2457      C2458   1.411       .  A
C2457      C2462   1.416       .  A
C2457      C2475   1.451       .  S
C2458      C2463   1.505       .  S
C2458      C2459   1.410       .  A
C2459      C2460   1.414       .  A
C2459      C2464   1.450       .  S
C2460      C2461   1.419       .  A
C2460      C2476   1.451       .  S
C2461      C2462   1.417       .  A
C2462      C2465   1.446       .  S
C2463      C2466   1.412       .  A
C2463      C2470   1.410       .  A
C2464      N2481   1.157       .  T
C2465      N2483   1.156       .  T
C2466      C2467   1.417       .  A
C2466      C2471   1.450       .  S
C2467      C2468   1.417       .  A
C2467      C2473   1.450       .  S
C2468      C2469   1.418       .  A
C2469      C2470   1.412       .  A
C2469      C2472   1.450       .  S
C2470      C2474   1.451       .  S
C2471      N2478   1.157       .  T
C2472      N2479   1.157       .  T
C2473      N2477   1.157       .  T
C2474      N2480   1.157       .  T
C2475      N2484   1.157       .  T
C2476      N2482   1.157       .  T
C2485      C2486   1.411       .  A
C2485      C2490   1.410   1_655  A
C2485      C2503   1.450       .  S
C2486      C2491   1.497       .  S
C2486      C2487   1.412       .  A
C2487      C2488   1.412   1_655  A
C2487      C2492   1.451       .  S
C2488      C2489   1.413       .  A
C2488      C2504   1.450       .  S
C2489      C2490   1.411       .  A
C2490      C2493   1.450       .  S
C2491      C2494   1.406       .  A
C2491      C2498   1.407       .  A
C2492      N2509   1.157       .  T
C2493      N2511   1.157       .  T
C2494      C2495   1.409       .  A
C2494      C2499   1.452       .  S
C2495      C2496   1.425       .  A
C2495      C2501   1.453       .  S
C2496      C2497   1.428       .  A
C2497      C2498   1.414       .  A
C2497      C2500   1.452       .  S
C2498      C2502   1.451       .  S
C2499      N2506   1.157   1_655  T
C2500      N2507   1.158       .  T
C2501      N2505   1.158       .  T
C2502      N2508   1.157       .  T
C2503      N2512   1.157       .  T
C2504      N2510   1.157       .  T
C2513      C2514   1.411       .  A
C2513      C2518   1.408       .  A
C2513      C2531   1.451       .  S
C2514      C2519   1.490       .  S
C2514      C2515   1.410       .  A
C2515      C2516   1.408       .  A
C2515      C2520   1.451       .  S
C2516      C2517   1.412       .  A
C2516      C2532   1.451       .  S
C2517      C2518   1.411       .  A
C2518      C2521   1.450       .  S
C2519      C2522   1.407       .  A
C2519      C2526   1.407       .  A
C2520      N2537   1.157       .  T
C2521      N2539   1.157       .  T
C2522      C2523   1.407       .  A
C2522      C2527   1.452       .  S
C2523      C2524   1.420       .  A
C2523      C2529   1.452       .  S
C2524      C2525   1.424       .  A
C2525      C2526   1.411       .  A
C2525      C2528   1.452       .  S
C2526      C2530   1.452       .  S
C2527      N2534   1.157       .  T
C2528      N2535   1.158       .  T
C2529      N2533   1.157       .  T
C2530      N2536   1.157       .  T
C2531      N2540   1.157       .  T
C2532      N2538   1.157       .  T
C2541      C2542   1.413       .  A
C2541      C2546   1.410       .  A
C2541      C2559   1.450       .  S
C2542      C2547   1.498       .  S
C2542      C2543   1.412       .  A
C2543      C2544   1.411       .  A
C2543      C2548   1.451       .  S
C2544      C2545   1.413       .  A
C2544      C2560   1.451       .  S
C2545      C2546   1.410       .  A
C2546      C2549   1.451       .  S
C2547      C2550   1.411       .  A
C2547      C2554   1.410       .  A
C2548      N2565   1.157       .  T
C2549      N2567   1.157       .  T
C2550      C2551   1.410       .  A
C2550      C2555   1.452       .  S
C2551      C2552   1.418       .  A
C2551      C2557   1.451       .  S
C2552      C2553   1.418       .  A
C2553      C2554   1.413       .  A
C2553      C2556   1.451       .  S
C2554      C2558   1.451       .  S
C2555      N2562   1.157       .  T
C2556      N2563   1.157       .  T
C2557      N2561   1.157       .  T
C2558      N2564   1.157       .  T
C2559      N2568   1.157       .  T
C2560      N2566   1.157       .  T
C2569      C2570   1.409       .  A
C2569      C2574   1.412       .  A
C2569      C2587   1.452       .  S
C2570      C2575   1.497       .  S
C2570      C2571   1.410       .  A
C2571      C2572   1.409       .  A
C2571      C2576   1.453       .  S
C2572      C2573   1.422       .  A
C2572      C2588   1.453       .  S
C2573      C2574   1.422       .  A
C2574      C2577   1.451       .  S
C2575      C2578   1.414       .  A
C2575      C2582   1.413       .  A
C2576      N2593   1.157       .  T
C2577      N2595   1.157       .  T
C2578      C2579   1.409       .  A
C2578      C2583   1.451       .  S
C2579      C2580   1.410       .  A
C2579      C2585   1.452       .  S
C2580      C2581   1.409       .  A
C2581      C2582   1.408       .  A
C2581      C2584   1.451       .  S
C2582      C2586   1.451       .  S
C2583      N2590   1.157       .  T
C2584      N2591   1.157       .  T
C2585      N2589   1.158       .  T
C2586      N2592   1.157       .  T
C2587      N2596   1.157       .  T
C2588      N2594   1.158   1_545  T
C2597      C2598   1.408       .  A
C2597      C2602   1.408       .  A
C2597      C2615   1.453       .  S
C2598      C2603   1.489       .  S
C2598      C2599   1.407       .  A
C2599      C2600   1.409       .  A
C2599      C2604   1.451       .  S
C2600      C2601   1.418       .  A
C2600      C2616   1.451       .  S
C2601      C2602   1.418       .  A
C2602      C2605   1.450       .  S
C2603      C2606   1.408       .  A
C2603      C2610   1.408       .  A
C2604      N2621   1.157       .  T
C2605      N2623   1.157       .  T
C2606      C2607   1.409       .  A
C2606      C2611   1.451       .  S
C2607      C2608   1.419       .  A
C2607      C2613   1.451       .  S
C2608      C2609   1.417       .  A
C2609      C2610   1.407       .  A
C2609      C2612   1.452       .  S
C2610      C2614   1.452       .  S
C2611      N2618   1.157       .  T
C2612      N2619   1.157       .  T
C2613      N2617   1.158       .  T
C2614      N2620   1.157       .  T
C2615      N2624   1.157       .  T
C2616      N2622   1.157       .  T
C2625      C2626   1.410       .  A
C2625      C2630   1.411       .  A
C2625      C2643   1.451       .  S
C2626      C2631   1.494       .  S
C2626      C2627   1.408       .  A
C2627      C2628   1.409       .  A
C2627      C2632   1.452       .  S
C2628      C2629   1.420       .  A
C2628      C2644   1.452       .  S
C2629      C2630   1.417       .  A
C2630      C2633   1.451       .  S
C2631      C2634   1.409       .  A
C2631      C2638   1.408       .  A
C2632      N2649   1.157       .  T
C2633      N2651   1.157       .  T
C2634      C2635   1.412       .  A
C2634      C2639   1.450       .  S
C2635      C2636   1.417       .  A
C2635      C2641   1.451       .  S
C2636      C2637   1.416       .  A
C2637      C2638   1.408       .  A
C2637      C2640   1.448       .  S
C2638      C2642   1.453       .  S
C2639      N2646   1.157       .  T
C2640      N2647   1.156       .  T
C2641      N2645   1.157       .  T
C2642      N2648   1.157       .  T
C2643      N2652   1.157       .  T
C2644      N2650   1.158   1_545  T
C2653      C2654   1.408       .  A
C2653      C2658   1.409       .  A
C2653      C2671   1.451       .  S
C2654      C2659   1.489       .  S
C2654      C2655   1.408       .  A
C2655      C2656   1.407       .  A
C2655      C2660   1.451       .  S
C2656      C2657   1.416       .  A
C2656      C2672   1.452       .  S
C2657      C2658   1.415       .  A
C2658      C2661   1.449       .  S
C2659      C2662   1.407       .  A
C2659      C2666   1.409       .  A
C2660      N2677   1.157       .  T
C2661      N2679   1.157       .  T
C2662      C2663   1.407       .  A
C2662      C2667   1.451       .  S
C2663      C2664   1.417       .  A
C2663      C2669   1.451       .  S
C2664      C2665   1.417       .  A
C2665      C2666   1.409       .  A
C2665      C2668   1.451       .  S
C2666      C2670   1.452       .  S
C2667      N2674   1.157       .  T
C2668      N2675   1.157       .  T
C2669      N2673   1.157       .  T
C2670      N2676   1.157       .  T
C2671      N2680   1.157       .  T
C2672      N2678   1.157       .  T
C2681      C2682   1.411       .  A
C2681      C2686   1.407       .  A
C2681      C2699   1.452       .  S
C2682      C2687   1.493       .  S
C2682      C2683   1.411       .  A
C2683      C2684   1.410       .  A
C2683      C2688   1.451       .  S
C2684      C2685   1.414       .  A
C2684      C2700   1.451       .  S
C2685      C2686   1.414       .  A
C2686      C2689   1.452       .  S
C2687      C2690   1.410       .  A
C2687      C2694   1.408       .  A
C2688      N2705   1.157       .  T
C2689      N2707   1.157       .  T
C2690      C2691   1.408       .  A
C2690      C2695   1.452       .  S
C2691      C2692   1.415       .  A
C2691      C2697   1.449       .  S
C2692      C2693   1.419       .  A
C2693      C2694   1.410       .  A
C2693      C2696   1.449       .  S
C2694      C2698   1.451       .  S
C2695      N2702   1.157       .  T
C2696      N2703   1.157       .  T
C2697      N2701   1.156       .  T
C2698      N2704   1.157       .  T
C2699      N2708   1.157       .  T
C2700      N2706   1.157       .  T
C2709      C2710   1.410       .  A
C2709      C2714   1.409       .  A
C2709      C2727   1.451       .  S
C2710      C2715   1.492       .  S
C2710      C2711   1.409       .  A
C2711      C2712   1.409       .  A
C2711      C2716   1.450       .  S
C2712      C2713   1.413       .  A
C2712      C2728   1.448       .  S
C2713      C2714   1.416       .  A
C2714      C2717   1.452       .  S
C2715      C2718   1.409       .  A
C2715      C2722   1.408       .  A
C2716      N2733   1.157       .  T
C2717      N2735   1.158       .  T
C2718      C2719   1.410       .  A
C2718      C2723   1.451       .  S
C2719      C2720   1.417       .  A
C2719      C2725   1.451       .  S
C2720      C2721   1.416       .  A
C2721      C2722   1.410       .  A
C2721      C2724   1.450       .  S
C2722      C2726   1.451       .  S
C2723      N2730   1.157       .  T
C2724      N2731   1.157       .  T
C2725      N2729   1.157       .  T
C2726      N2732   1.157       .  T
C2727      N2736   1.157       .  T
C2728      N2734   1.156       .  T
C2737      C2738   1.406       .  A
C2737      C2742   1.414       .  A
C2737      C2755   1.451       .  S
C2738      C2743   1.497       .  S
C2738      C2739   1.407       .  A
C2739      C2740   1.411       .  A
C2739      C2744   1.453       .  S
C2740      C2741   1.424       .  A
C2740      C2756   1.451       .  S
C2741      C2742   1.428       .  A
C2742      C2745   1.451       .  S
C2743      C2746   1.413       .  A
C2743      C2750   1.411       .  A
C2744      N2761   1.157       .  T
C2745      N2763   1.158       .  T
C2746      C2747   1.412       .  A
C2746      C2751   1.450       .  S
C2747      C2748   1.412       .  A
C2747      C2753   1.451       .  S
C2748      C2749   1.412       .  A
C2749      C2750   1.409       .  A
C2749      C2752   1.450       .  S
C2750      C2754   1.451       .  S
C2751      N2758   1.157       .  T
C2752      N2759   1.157       .  T
C2753      N2757   1.158       .  T
C2754      N2760   1.157       .  T
C2755      N2764   1.157       .  T
C2756      N2762   1.157       .  T
C2765      C2766   1.407       .  A
C2765      C2770   1.408       .  A
C2765      C2783   1.452       .  S
C2766      C2771   1.493       .  S
C2766      C2767   1.409       .  A
C2767      C2768   1.410       .  A
C2767      C2772   1.452       .  S
C2768      C2769   1.419       .  A
C2768      C2784   1.451       .  S
C2769      C2770   1.421       .  A
C2770      C2773   1.451       .  S
C2771      C2774   1.409       .  A
C2771      C2778   1.412       .  A
C2772      N2789   1.157       .  T
C2773      N2791   1.157       .  T
C2774      C2775   1.409       .  A
C2774      C2779   1.450       .  S
C2775      C2776   1.413       .  A
C2775      C2781   1.450       .  S
C2776      C2777   1.412       .  A
C2777      C2778   1.410       .  A
C2777      C2780   1.450       .  S
C2778      C2782   1.452       .  S
C2779      N2786   1.157       .  T
C2780      N2787   1.157       .  T
C2781      N2785   1.157       .  T
C2782      N2788   1.157       .  T
C2783      N2792   1.157       .  T
C2784      N2790   1.157       .  T
C2793      C2794   1.406       .  A
C2793      C2798   1.409       .  A
C2793      C2811   1.452       .  S
C2794      C2799   1.490       .  S
C2794      C2795   1.407       .  A
C2795      C2796   1.408       .  A
C2795      C2800   1.453       .  S
C2796      C2797   1.425       .  A
C2796      C2812   1.452       .  S
C2797      C2798   1.424       .  A
C2798      C2801   1.452       .  S
C2799      C2802   1.411       .  A
C2799      C2806   1.411       .  A
C2800      N2817   1.157       .  T
C2801      N2819   1.157       .  T
C2802      C2803   1.406       .  A
C2802      C2807   1.451       .  S
C2803      C2804   1.409       .  A
C2803      C2809   1.450       .  S
C2804      C2805   1.411       .  A
C2805      C2806   1.410       .  A
C2805      C2808   1.450       .  S
C2806      C2810   1.451       .  S
C2807      N2814   1.157       .  T
C2808      N2815   1.157       .  T
C2809      N2813   1.157       .  T
C2810      N2816   1.157       .  T
C2811      N2820   1.157       .  T
C2812      N2818   1.158       .  T
C2821      C2822   1.411       .  A
C2821      C2826   1.414       .  A
C2821      C2839   1.450       .  S
C2822      C2827   1.500       .  S
C2822      C2823   1.409       .  A
C2823      C2824   1.412       .  A
C2823      C2828   1.451       .  S
C2824      C2825   1.418       .  A
C2824      C2840   1.450       .  S
C2825      C2826   1.415       .  A
C2826      C2829   1.450       .  S
C2827      C2830   1.409       .  A
C2827      C2834   1.410       .  A
C2828      N2845   1.157       .  T
C2829      N2847   1.157       .  T
C2830      C2831   1.413       .  A
C2830      C2835   1.450       .  S
C2831      C2832   1.419       .  A
C2831      C2837   1.450       .  S
C2832      C2833   1.421       .  A
C2833      C2834   1.413       .  A
C2833      C2836   1.452       .  S
C2834      C2838   1.452       .  S
C2835      N2842   1.157       .  T
C2836      N2843   1.157       .  T
C2837      N2841   1.157       .  T
C2838      N2844   1.157       .  T
C2839      N2848   1.157       .  T
C2840      N2846   1.157       .  T
C2849      C2850   1.410       .  A
C2849      C2854   1.408       .  A
C2849      C2867   1.453       .  S
C2850      C2855   1.495       .  S
C2850      C2851   1.410       .  A
C2851      C2852   1.410       .  A
C2851      C2856   1.451       .  S
C2852      C2853   1.418       .  A
C2852      C2868   1.451       .  S
C2853      C2854   1.417       .  A
C2854      C2857   1.449       .  S
C2855      C2858   1.412       .  A
C2855      C2862   1.411       .  A
C2856      N2873   1.157       .  T
C2857      N2875   1.157       .  T
C2858      C2859   1.410       .  A
C2858      C2863   1.451       .  S
C2859      C2860   1.411       .  A
C2859      C2865   1.450       .  S
C2860      C2861   1.414       .  A
C2861      C2862   1.408       .  A
C2861      C2864   1.450       .  S
C2862      C2866   1.452       .  S
C2863      N2870   1.157       .  T
C2864      N2871   1.157       .  T
C2865      N2869   1.157       .  T
C2866      N2872   1.157       .  T
C2867      N2876   1.157       .  T
C2868      N2874   1.157       .  T
C2877      C2878   1.404       .  A
C2877      C2882   1.409       .  A
C2877      C2895   1.452       .  S
C2878      C2883   1.488       .  S
C2878      C2879   1.407       .  A
C2879      C2880   1.408       .  A
C2879      C2884   1.452       .  S
C2880      C2881   1.423       .  A
C2880      C2896   1.452       .  S
C2881      C2882   1.425       .  A
C2882      C2885   1.450       .  S
C2883      C2886   1.410       .  A
C2883      C2890   1.409       .  A
C2884      N2901   1.157       .  T
C2885      N2903   1.157       .  T
C2886      C2887   1.407       .  A
C2886      C2891   1.451       .  S
C2887      C2888   1.411       .  A
C2887      C2893   1.451       .  S
C2888      C2889   1.411       .  A
C2889      C2890   1.407       .  A
C2889      C2892   1.449       .  S
C2890      C2894   1.451       .  S
C2891      N2898   1.157       .  T
C2892      N2899   1.157       .  T
C2893      N2897   1.157       .  T
C2894      N2900   1.157       .  T
C2895      N2904   1.157       .  T
C2896      N2902   1.158       .  T
C2905      C2906   1.410       .  A
C2905      C2910   1.412       .  A
C2905      C2923   1.451       .  S
C2906      C2911   1.497       .  S
C2906      C2907   1.409       .  A
C2907      C2908   1.411       .  A
C2907      C2912   1.452       .  S
C2908      C2909   1.420       .  A
C2908      C2924   1.451       .  S
C2909      C2910   1.418       .  A
C2910      C2913   1.451       .  S
C2911      C2914   1.413       .  A
C2911      C2918   1.412       .  A
C2912      N2929   1.157   1_655  T
C2913      N2931   1.157       .  T
C2914      C2915   1.411   1_655  A
C2914      C2919   1.450       .  S
C2915      C2916   1.411       .  A
C2915      C2921   1.450       .  S
C2916      C2917   1.409   1_455  A
C2917      C2918   1.407       .  A
C2917      C2920   1.450       .  S
C2918      C2922   1.451       .  S
C2919      N2926   1.157       .  T
C2920      N2927   1.157   1_655  T
C2921      N2925   1.157       .  T
C2922      N2928   1.157       .  T
C2923      N2932   1.157       .  T
C2924      N2930   1.157       .  T
C2933      C2934   1.408       .  A
C2933      C2938   1.411   1_655  A
C2933      C2951   1.451   1_655  S
C2934      C2939   1.491       .  S
C2934      C2935   1.407       .  A
C2935      C2936   1.408       .  A
C2935      C2940   1.453       .  S
C2936      C2937   1.417   1_655  A
C2936      C2952   1.448       .  S
C2937      C2938   1.417       .  A
C2938      C2941   1.449       .  S
C2939      C2942   1.408       .  A
C2939      C2946   1.409       .  A
C2940      N2957   1.157       .  T
C2941      N2959   1.157       .  T
C2942      C2943   1.410       .  A
C2942      C2947   1.451       .  S
C2943      C2944   1.417       .  A
C2943      C2949   1.449       .  S
C2944      C2945   1.415       .  A
C2945      C2946   1.408       .  A
C2945      C2948   1.451       .  S
C2946      C2950   1.451       .  S
C2947      N2954   1.157       .  T
C2948      N2955   1.157       .  T
C2949      N2953   1.157       .  T
C2950      N2956   1.157       .  T
C2951      N2960   1.157       .  T
C2952      N2958   1.156       .  T
C2961      C2962   1.408       .  A
C2961      C2966   1.410       .  A
C2961      C2979   1.453       .  S
C2962      C2967   1.492       .  S
C2962      C2963   1.407       .  A
C2963      C2964   1.411       .  A
C2963      C2968   1.451       .  S
C2964      C2965   1.422       .  A
C2964      C2980   1.451       .  S
C2965      C2966   1.419       .  A
C2966      C2969   1.449       .  S
C2967      C2970   1.411       .  A
C2967      C2974   1.408       .  A
C2968      N2985   1.157       .  T
C2969      N2987   1.157       .  T
C2970      C2971   1.407       .  A
C2970      C2975   1.450       .  S
C2971      C2972   1.412       .  A
C2971      C2977   1.451       .  S
C2972      C2973   1.417       .  A
C2973      C2974   1.410       .  A
C2973      C2976   1.450       .  S
C2974      C2978   1.451       .  S
C2975      N2982   1.157       .  T
C2976      N2983   1.156       .  T
C2977      N2981   1.157       .  T
C2978      N2984   1.157       .  T
C2979      N2988   1.157       .  T
C2980      N2986   1.157       .  T
C2989      C2990   1.412       .  A
C2989      C2994   1.409       .  A
C2989      C3007   1.451       .  S
C2990      C2995   1.501       .  S
C2990      C2991   1.414       .  A
C2991      C2992   1.412       .  A
C2991      C2996   1.450       .  S
C2992      C2993   1.411       .  A
C2992      C3008   1.450       .  S
C2993      C2994   1.412       .  A
C2994      C2997   1.450       .  S
C2995      C2998   1.413       .  A
C2995      C3002   1.410       .  A
C2996      N3013   1.157       .  T
C2997      N3015   1.157       .  T
C2998      C2999   1.411       .  A
C2998      C3003   1.451       .  S
C2999      C3000   1.416       .  A
C2999      C3005   1.452       .  S
C3000      C3001   1.420       .  A
C3001      C3002   1.412       .  A
C3001      C3004   1.449       .  S
C3002      C3006   1.452       .  S
C3003      N3010   1.157       .  T
C3004      N3011   1.156       .  T
C3005      N3009   1.157       .  T
C3006      N3012   1.157       .  T
C3007      N3016   1.157       .  T
C3008      N3014   1.157       .  T
C3017      C3018   1.410       .  A
C3017      C3022   1.402       .  A
C3017      C3035   1.451       .  S
C3018      C3023   1.485       .  S
C3018      C3019   1.411       .  A
C3019      C3020   1.408       .  A
C3019      C3024   1.450       .  S
C3020      C3021   1.410       .  A
C3020      C3036   1.450       .  S
C3021      C3022   1.407       .  A
C3022      C3025   1.450       .  S
C3023      C3026   1.409       .  A
C3023      C3030   1.408       .  A
C3024      N3041   1.157       .  T
C3025      N3043   1.157       .  T
C3026      C3027   1.407       .  A
C3026      C3031   1.453       .  S
C3027      C3028   1.419       .  A
C3027      C3033   1.452       .  S
C3028      C3029   1.414       .  A
C3029      C3030   1.405       .  A
C3029      C3032   1.451       .  S
C3030      C3034   1.451       .  S
C3031      N3038   1.157       .  T
C3032      N3039   1.157       .  T
C3033      N3037   1.157       .  T
C3034      N3040   1.157       .  T
C3035      N3044   1.157       .  T
C3036      N3042   1.157       .  T
C3045      C3046   1.408       .  A
C3045      C3050   1.407       .  A
C3045      C3063   1.452       .  S
C3046      C3051   1.489       .  S
C3046      C3047   1.408       .  A
C3047      C3048   1.409       .  A
C3047      C3052   1.451       .  S
C3048      C3049   1.417       .  A
C3048      C3064   1.451       .  S
C3049      C3050   1.418       .  A
C3050      C3053   1.452       .  S
C3051      C3054   1.408       .  A
C3051      C3058   1.406       .  A
C3052      N3069   1.157       .  T
C3053      N3071   1.157       .  T
C3054      C3055   1.411       .  A
C3054      C3059   1.450       .  S
C3055      C3056   1.418       .  A
C3055      C3061   1.451       .  S
C3056      C3057   1.419       .  A
C3057      C3058   1.406       .  A
C3057      C3060   1.449       .  S
C3058      C3062   1.453       .  S
C3059      N3066   1.157       .  T
C3060      N3067   1.156       .  T
C3061      N3065   1.157       .  T
C3062      N3068   1.157       .  T
C3063      N3072   1.157       .  T
C3064      N3070   1.157       .  T
C3073      C3074   1.410       .  A
C3073      C3078   1.411       .  A
C3073      C3091   1.451       .  S
C3074      C3079   1.495       .  S
C3074      C3075   1.410       .  A
C3075      C3076   1.410       .  A
C3075      C3080   1.451       .  S
C3076      C3077   1.415       .  A
C3076      C3092   1.450       .  S
C3077      C3078   1.416       .  A
C3078      C3081   1.452       .  S
C3079      C3082   1.409       .  A
C3079      C3086   1.408       .  A
C3080      N3097   1.157       .  T
C3081      N3099   1.157       .  T
C3082      C3083   1.411       .  A
C3082      C3087   1.452       .  S
C3083      C3084   1.418       .  A
C3083      C3089   1.450       .  S
C3084      C3085   1.419       .  A
C3085      C3086   1.411       .  A
C3085      C3088   1.450       .  S
C3086      C3090   1.451       .  S
C3087      N3094   1.157       .  T
C3088      N3095   1.157       .  T
C3089      N3093   1.157       .  T
C3090      N3096   1.157       .  T
C3091      N3100   1.157       .  T
C3092      N3098   1.157       .  T
C3101      C3102   1.413       .  A
C3101      C3106   1.404       .  A
C3101      C3119   1.453       .  S
C3102      C3107   1.498       .  S
C3102      C3103   1.413       .  A
C3103      C3104   1.413       .  A
C3103      C3108   1.450       .  S
C3104      C3105   1.416       .  A
C3104      C3120   1.450       .  S
C3105      C3106   1.414       .  A
C3106      C3109   1.453       .  S
C3107      C3110   1.415       .  A
C3107      C3114   1.415       .  A
C3108      N3125   1.157       .  T
C3109      N3127   1.157       .  T
C3110      C3111   1.410       .  A
C3110      C3115   1.450       .  S
C3111      C3112   1.410       .  A
C3111      C3117   1.452       .  S
C3112      C3113   1.407       .  A
C3113      C3114   1.406       .  A
C3113      C3116   1.451       .  S
C3114      C3118   1.451       .  S
C3115      N3122   1.157       .  T
C3116      N3123   1.157       .  T
C3117      N3121   1.158       .  T
C3118      N3124   1.157       .  T
C3119      N3128   1.157       .  T
C3120      N3126   1.157       .  T
C3129      C3130   1.410       .  A
C3129      C3134   1.409       .  A
C3129      C3147   1.451       .  S
C3130      C3135   1.492       .  S
C3130      C3131   1.409       .  A
C3131      C3132   1.409       .  A
C3131      C3136   1.452       .  S
C3132      C3133   1.413       .  A
C3132      C3148   1.447       .  S
C3133      C3134   1.416       .  A
C3134      C3137   1.451       .  S
C3135      C3138   1.410       .  A
C3135      C3142   1.408       .  A
C3136      N3153   1.157       .  T
C3137      N3155   1.157       .  T
C3138      C3139   1.411       .  A
C3138      C3143   1.452       .  S
C3139      C3140   1.418       .  A
C3139      C3145   1.449       .  S
C3140      C3141   1.418       .  A
C3141      C3142   1.406       .  A
C3141      C3144   1.452       .  S
C3142      C3146   1.452       .  S
C3143      N3150   1.157       .  T
C3144      N3151   1.157       .  T
C3145      N3149   1.157       .  T
C3146      N3152   1.157       .  T
C3147      N3156   1.157       .  T
C3148      N3154   1.156       .  T
C3157      C3158   1.411       .  A
C3157      C3162   1.411       .  A
C3157      C3175   1.451       .  S
C3158      C3163   1.497       .  S
C3158      C3159   1.410       .  A
C3159      C3160   1.409       .  A
C3159      C3164   1.452       .  S
C3160      C3161   1.416       .  A
C3160      C3176   1.450       .  S
C3161      C3162   1.416       .  A
C3162      C3165   1.450       .  S
C3163      C3166   1.410       .  A
C3163      C3170   1.410       .  A
C3164      N3181   1.157       .  T
C3165      N3183   1.157       .  T
C3166      C3167   1.409       .  A
C3166      C3171   1.452       .  S
C3167      C3168   1.413       .  A
C3167      C3173   1.447       .  S
C3168      C3169   1.416       .  A
C3169      C3170   1.412       .  A
C3169      C3172   1.449       .  S
C3170      C3174   1.451       .  S
C3171      N3178   1.157       .  T
C3172      N3179   1.157       .  T
C3173      N3177   1.156       .  T
C3174      N3180   1.157       .  T
C3175      N3184   1.157       .  T
C3176      N3182   1.156       .  T
C3185      C3186   1.407       .  A
C3185      C3190   1.408       .  A
C3185      C3203   1.453       .  S
C3186      C3191   1.493       .  S
C3186      C3187   1.408       .  A
C3187      C3188   1.413       .  A
C3187      C3192   1.450       .  S
C3188      C3189   1.420       .  A
C3188      C3204   1.451       .  S
C3189      C3190   1.421       .  A
C3190      C3193   1.450       .  S
C3191      C3194   1.411       .  A
C3191      C3198   1.411       .  A
C3192      N3209   1.157       .  T
C3193      N3211   1.157       .  T
C3194      C3195   1.408       .  A
C3194      C3199   1.451       .  S
C3195      C3196   1.412       .  A
C3195      C3201   1.452       .  S
C3196      C3197   1.411       .  A
C3197      C3198   1.410       .  A
C3197      C3200   1.450       .  S
C3198      C3202   1.450       .  S
C3199      N3206   1.157       .  T
C3200      N3207   1.157       .  T
C3201      N3205   1.157       .  T
C3202      N3208   1.157       .  T
C3203      N3212   1.157       .  T
C3204      N3210   1.157       .  T
C3213      C3214   1.409       .  A
C3213      C3218   1.409       .  A
C3213      C3231   1.451       .  S
C3214      C3219   1.492       .  S
C3214      C3215   1.409       .  A
C3215      C3216   1.410       .  A
C3215      C3220   1.451       .  S
C3216      C3217   1.416       .  A
C3216      C3232   1.451       .  S
C3217      C3218   1.416       .  A
C3218      C3221   1.451       .  S
C3219      C3222   1.409       .  A
C3219      C3226   1.408       .  A
C3220      N3237   1.157       .  T
C3221      N3239   1.157       .  T
C3222      C3223   1.408       .  A
C3222      C3227   1.452       .  S
C3223      C3224   1.414       .  A
C3223      C3229   1.450       .  S
C3224      C3225   1.417       .  A
C3225      C3226   1.411       .  A
C3225      C3228   1.450       .  S
C3226      C3230   1.451       .  S
C3227      N3234   1.157       .  T
C3228      N3235   1.157       .  T
C3229      N3233   1.157       .  T
C3230      N3236   1.157       .  T
C3231      N3240   1.157       .  T
C3232      N3238   1.157       .  T
C3241      C3242   1.413       .  A
C3241      C3246   1.414       .  A
C3241      C3259   1.450       .  S
C3242      C3247   1.499       .  S
C3242      C3243   1.409       .  A
C3243      C3244   1.409       .  A
C3243      C3248   1.451       .  S
C3244      C3245   1.415       .  A
C3244      C3260   1.450       .  S
C3245      C3246   1.413       .  A
C3246      C3249   1.451       .  S
C3247      C3250   1.412       .  A
C3247      C3254   1.408       .  A
C3248      N3265   1.157       .  T
C3249      N3267   1.158       .  T
C3250      C3251   1.414   1_655  A
C3250      C3255   1.451       .  S
C3251      C3252   1.417       .  A
C3251      C3257   1.451       .  S
C3252      C3253   1.420   1_455  A
C3253      C3254   1.411       .  A
C3253      C3256   1.451       .  S
C3254      C3258   1.452       .  S
C3255      N3262   1.157   1_655  T
C3256      N3263   1.157   1_554  T
C3257      N3261   1.158       .  T
C3258      N3264   1.157       .  T
C3259      N3268   1.157       .  T
C3260      N3266   1.156       .  T
C3269      C3270   1.412       .  A
C3269      C3274   1.409       .  A
C3269      C3287   1.451       .  S
C3270      C3275   1.499       .  S
C3270      C3271   1.415       .  A
C3271      C3272   1.410       .  A
C3271      C3276   1.451       .  S
C3272      C3273   1.410       .  A
C3272      C3288   1.451       .  S
C3273      C3274   1.412       .  A
C3274      C3277   1.451       .  S
C3275      C3278   1.412   1_655  A
C3275      C3282   1.412       .  A
C3276      N3293   1.157       .  T
C3277      N3295   1.157       .  T
C3278      C3279   1.412       .  A
C3278      C3283   1.451       .  S
C3279      C3280   1.417       .  A
C3279      C3285   1.451       .  S
C3280      C3281   1.416   1_455  A
C3281      C3282   1.409       .  A
C3281      C3284   1.452       .  S
C3282      C3286   1.452       .  S
C3283      N3290   1.157       .  T
C3284      N3291   1.157       .  T
C3285      N3289   1.157       .  T
C3286      N3292   1.157       .  T
C3287      N3296   1.157       .  T
C3288      N3294   1.157       .  T
C3297      C3298   1.412       .  A
C3297      C3302   1.412       .  A
C3297      C3315   1.451       .  S
C3298      C3303   1.504       .  S
C3298      C3299   1.413       .  A
C3299      C3300   1.414       .  A
C3299      C3304   1.450       .  S
C3300      C3301   1.415       .  A
C3300      C3316   1.451       .  S
C3301      C3302   1.415       .  A
C3302      C3305   1.451       .  S
C3303      C3306   1.411       .  A
C3303      C3310   1.411       .  A
C3304      N3321   1.157       .  T
C3305      N3323   1.157       .  T
C3306      C3307   1.414       .  A
C3306      C3311   1.450       .  S
C3307      C3308   1.417       .  A
C3307      C3313   1.451       .  S
C3308      C3309   1.420       .  A
C3309      C3310   1.413       .  A
C3309      C3312   1.451       .  S
C3310      C3314   1.452       .  S
C3311      N3318   1.157       .  T
C3312      N3319   1.157       .  T
C3313      N3317   1.157       .  T
C3314      N3320   1.157       .  T
C3315      N3324   1.157       .  T
C3316      N3322   1.157       .  T
C3325      C3326   1.410       .  A
C3325      C3330   1.412       .  A
C3325      C3343   1.451       .  S
C3326      C3331   1.499       .  S
C3326      C3327   1.409       .  A
C3327      C3328   1.413       .  A
C3327      C3332   1.451       .  S
C3328      C3329   1.419       .  A
C3328      C3344   1.449       .  S
C3329      C3330   1.416       .  A
C3330      C3333   1.449       .  S
C3331      C3334   1.410       .  A
C3331      C3338   1.409       .  A
C3332      N3349   1.157       .  T
C3333      N3351   1.157       .  T
C3334      C3335   1.414       .  A
C3334      C3339   1.450       .  S
C3335      C3336   1.417       .  A
C3335      C3341   1.449       .  S
C3336      C3337   1.418       .  A
C3337      C3338   1.410       .  A
C3337      C3340   1.452       .  S
C3338      C3342   1.451       .  S
C3339      N3346   1.157       .  T
C3340      N3347   1.157       .  T
C3341      N3345   1.157       .  T
C3342      N3348   1.157       .  T
C3343      N3352   1.157       .  T
C3344      N3350   1.157       .  T
C3353      C3354   1.408       .  A
C3353      C3358   1.407       .  A
C3353      C3371   1.452       .  S
C3354      C3359   1.488       .  S
C3354      C3355   1.407       .  A
C3355      C3356   1.409       .  A
C3355      C3360   1.451       .  S
C3356      C3357   1.418       .  A
C3356      C3372   1.451       .  S
C3357      C3358   1.417       .  A
C3358      C3361   1.451       .  S
C3359      C3362   1.409       .  A
C3359      C3366   1.408       .  A
C3360      N3377   1.157       .  T
C3361      N3379   1.157       .  T
C3362      C3363   1.409       .  A
C3362      C3367   1.450       .  S
C3363      C3364   1.414       .  A
C3363      C3369   1.451       .  S
C3364      C3365   1.417       .  A
C3365      C3366   1.407       .  A
C3365      C3368   1.452       .  S
C3366      C3370   1.452       .  S
C3367      N3374   1.157       .  T
C3368      N3375   1.158       .  T
C3369      N3373   1.157       .  T
C3370      N3376   1.157       .  T
C3371      N3380   1.157       .  T
C3372      N3378   1.157       .  T
C3381      C3382   1.406       .  A
C3381      C3386   1.409       .  A
C3381      C3399   1.452       .  S
C3382      C3387   1.488       .  S
C3382      C3383   1.408       .  A
C3383      C3384   1.408       .  A
C3383      C3388   1.452       .  S
C3384      C3385   1.420       .  A
C3384      C3400   1.452       .  S
C3385      C3386   1.421       .  A
C3386      C3389   1.450       .  S
C3387      C3390   1.410       .  A
C3387      C3394   1.409       .  A
C3388      N3405   1.157       .  T
C3389      N3407   1.157       .  T
C3390      C3391   1.408       .  A
C3390      C3395   1.451       .  S
C3391      C3392   1.413       .  A
C3391      C3397   1.451       .  S
C3392      C3393   1.411       .  A
C3393      C3394   1.406       .  A
C3393      C3396   1.450       .  S
C3394      C3398   1.451       .  S
C3395      N3402   1.157       .  T
C3396      N3403   1.157       .  T
C3397      N3401   1.157       .  T
C3398      N3404   1.157       .  T
C3399      N3408   1.157       .  T
C3400      N3406   1.157       .  T
