geometry optimzed in LAMMPS
_audit_creation_date              2020-11-30 
_audit_creation_method            'lammps2cif' 
_symmetry_space_group_name_H-M    'P1' 
_symmetry_Int_Tables_number       1 
_symmetry_cell_setting            triclinic 
loop_ 
_symmetry_equiv_pos_as_xyz 
  x,y,z 
_cell_length_a                    42.37757348 
_cell_length_b                    35.949691757263366 
_cell_length_c                    35.12398465322922 
_cell_angle_alpha                 94.25312523194295 
_cell_angle_beta                  90.4587432612471 
_cell_angle_gamma                 126.85326221288182 
loop_ 
_atom_site_label 
_atom_site_type_symbol 
_atom_site_fract_x 
_atom_site_fract_y 
_atom_site_fract_z 
_atom_site_charge 
C1          C  0.34108668  0.19007726  0.06093633     0.31500
C2          C  0.34427345  0.17520794  0.47944856     0.31500
C3          C  0.30063434  0.16280488  0.03861852    -0.04700
C4          C  0.36479376  0.23659078  0.04247760    -0.05500
C5          C  0.35917723  0.16715753  0.04277717    -0.05400
C6          C  0.30363770  0.15181140  0.49682715    -0.04700
C7          C  0.36952370  0.22274112  0.50329411    -0.05500
C8          C  0.35918369  0.14964688  0.49734270    -0.05400
C9          C  0.26523849  0.13140881  0.48360596    -0.30800
N10         N  0.24276233  0.12200272  0.51395433     0.15700
C11         C  0.26271449  0.14471309  0.04781437    -0.30800
H12         H  0.25308916  0.14394835  0.07637025     0.17700
C13         C  0.39444402  0.26822649  0.49507377    -0.29700
N14         N  0.40391391  0.30733660  0.02269252     0.14500
C15         C  0.39111086  0.28372403  0.05425480    -0.29700
C16         C  0.37932896  0.13178549  0.48576235    -0.30000
N17         N  0.39266950  0.12429678  0.51748915     0.15000
H18         H  0.38509519  0.12609790  0.45686880     0.17600
C19         C  0.37867282  0.15094109  0.05674761    -0.30000
H20         H  0.38490139  0.15037195  0.08656090     0.17600
H21         H  0.40099264  0.30010184  0.08319996     0.17600
H22         H  0.25422283  0.12448797  0.45408720     0.17700
H23         H  0.40032065  0.28023801  0.46682947     0.17600
C24         C  0.34468567  0.18918347  0.31012742     0.31500
C25         C  0.34539896  0.19078431  0.23112873     0.31500
C26         C  0.30634792  0.17539263  0.28885794    -0.04700
C27         C  0.37635090  0.23633442  0.29503960    -0.05500
C28         C  0.35120142  0.15620980  0.28745157    -0.05400
C29         C  0.30718041  0.17658572  0.24907426    -0.04700
C30         C  0.37674810  0.23735679  0.25520462    -0.05500
C31         C  0.35268875  0.15764245  0.24771235    -0.05400
C32         C  0.27005962  0.15969367  0.23487697    -0.30800
N33         N  0.24648772  0.14819603  0.26445840     0.15700
C34         C  0.26789898  0.15641349  0.29730428    -0.30800
H35         H  0.25548727  0.14605294  0.32466693     0.17700
C36         C  0.40636889  0.28275435  0.24838942    -0.29700
N37         N  0.42305445  0.30909223  0.28252779     0.14500
C38         C  0.40543772  0.28101476  0.31110468    -0.29700
C39         C  0.36437518  0.13052977  0.23455120    -0.30000
N40         N  0.36798089  0.11150522  0.26479221     0.15000
H41         H  0.37116954  0.12640214  0.20565460     0.17600
C42         C  0.35937068  0.12633293  0.29675640    -0.30000
H43         H  0.36065271  0.11721802  0.32509289     0.17600
H44         H  0.41226812  0.29265854  0.34136168     0.17600
H45         H  0.26047159  0.15455715  0.20503051     0.17700
H46         H  0.41525941  0.29594959  0.22076141     0.17600
C47         C  0.13556348  0.08595199  0.03478797     0.77900
Tb48       Tb  0.45228867  0.01072429  0.02268955     1.80700
O49         O  0.11565579  0.08128185  0.06292174    -0.50100
O50         O  0.07501757  0.47035016  0.05747047    -0.57500
C51         C  0.05243640  0.10630579  0.01530585     0.93800
O52         O  0.43843753  0.06272479  0.04284736    -0.57100
Tb53       Tb  0.05322670  0.02223438  0.03223714     1.78100
O54         O  0.40531052  0.46258034  0.99966991    -0.57600
O55         O  0.51192967  0.46583565  0.06017346    -0.76400
O56         O  0.05533558  0.07666222  0.99753856    -0.75700
O57         O  0.01165142  0.97736943  0.48138765    -0.60900
C58         C  0.47684999  0.43733373  0.04543394     0.93300
O59         O  0.47984347  0.01978085  0.08300158    -0.72900
C60         C  0.37059866  0.95002367  0.02842112     0.76800
C61         C  0.07940419  0.45572838  0.02558020     0.77800
O62         O  0.11454268  0.06189874  0.00459909    -0.58100
O63         O  0.06972704  0.46726110  0.99716545    -0.50100
O64         O  0.47616076  0.98750467  0.46401560    -0.76200
O65         O  0.04923344  0.06003702  0.08673664    -0.60100
C66         C  0.02099610  0.05445583  0.10462052     0.91600
C67         C  0.99262772  0.98619240  0.46087853     0.92800
C68         C  0.43705376  0.06030995  0.49966405     0.77100
O69         O  0.39465725  0.97483058  0.05691645    -0.49500
O70         O  0.45044796  0.54029476  0.48722396    -0.50600
O71         O  0.46045475  0.44999940  0.02519666    -0.63500
O72         O  0.02344875  0.09357370  0.03553189    -0.64600
C73         C  0.14079095  0.09472620  0.28689961     0.77900
Tb74       Tb  0.45042585  0.00885562  0.26625608     1.80700
O75         O  0.12085602  0.08388218  0.31597005    -0.50100
O76         O  0.07782202  0.47746324  0.31560642    -0.57500
C77         C  0.05343128  0.10878341  0.30924438     0.93800
O78         O  0.42727636  0.05253678  0.28021080    -0.57100
Tb79       Tb  0.05884741  0.02732079  0.28369891     1.78100
O80         O  0.40005692  0.45878034  0.26769801    -0.57600
O81         O  0.51143225  0.45839694  0.29308000    -0.76400
O82         O  0.05761491  0.08094963  0.32422782    -0.75700
O83         O  0.05222156  0.06298600  0.23469973    -0.60900
C84         C  0.48074719  0.43843383  0.27032123     0.93300
O85         O  0.47656052  0.02525304  0.32974557    -0.72900
C86         C  0.37021741  0.94105381  0.27590715     0.76800
C87         C  0.08294722  0.46093067  0.28533672     0.77800
O88         O  0.11987312  0.07465510  0.25591255    -0.58100
O89         O  0.07381009  0.47042065  0.25522849    -0.50100
O90         O  0.48454759  0.01366351  0.21244713    -0.76200
O91         O  0.01801792  0.98640319  0.33206847    -0.60100
C92         C  0.99551370  0.99088575  0.35206609     0.91600
C93         C  0.02239449  0.05250150  0.21465394     0.92800
C94         C  0.41841571  0.05440430  0.24644409     0.77100
O95         O  0.39549905  0.96534511  0.30367148    -0.49500
O96         O  0.42902893  0.52784367  0.23325770    -0.50600
O97         O  0.47360298  0.46143691  0.25092830    -0.63500
O98         O  0.02287366  0.09370146  0.28810596    -0.64600
C99         C  0.18408193  0.35596242  0.01112504     0.31500
C100        C  0.18314181  0.35826327  0.09050258     0.31500
C101        C  0.16691554  0.37929764  0.03080377    -0.04700
C102        C  0.16024519  0.30832755  0.02787043    -0.05500
C103        C  0.22441231  0.38083470  0.03385263    -0.05400
C104        C  0.16705231  0.38129401  0.07081159    -0.04700
C105        C  0.15976509  0.31000658  0.06784791    -0.05500
C106        C  0.22416326  0.38283512  0.07392050    -0.05400
C107        C  0.15063797  0.40347214  0.08185778    -0.30800
N108        N  0.13831960  0.41199109  0.05024997     0.15700
C109        C  0.14847214  0.39790695  0.01878733    -0.30800
H110        H  0.14275542  0.40061428  0.98943831     0.17700
C111        C  0.13522067  0.26507103  0.07726496    -0.29700
N112        N  0.12109963  0.23593411  0.04462006     0.14500
C113        C  0.13630436  0.26166241  0.01424004    -0.29700
C114        C  0.26245311  0.40344316  0.08790422    -0.30000
N115        N  0.28512659  0.41161443  0.05789649     0.15000
H116        H  0.27300760  0.41085246  0.11763686     0.17600
C117        C  0.26204459  0.39726365  0.02501096    -0.30000
H118        H  0.27173466  0.39771623  0.99662647     0.17600
H119        H  0.12906307  0.24748396  0.98457157     0.17600
H120        H  0.14755870  0.41304588  0.11071128     0.17700
H121        H  0.12713107  0.25425605  0.10575114     0.17600
C122        C  0.18131487  0.35662810  0.26107051     0.31500
C123        C  0.18682939  0.35796763  0.34022462     0.31500
C124        C  0.16570880  0.37986699  0.28443127    -0.04700
C125        C  0.15944300  0.30917326  0.27733538    -0.05500
C126        C  0.22318548  0.38313832  0.28042451    -0.05400
C127        C  0.16802750  0.38000443  0.32428229    -0.04700
C128        C  0.16245452  0.30967406  0.31709855    -0.05500
C129        C  0.22651968  0.38288461  0.32023239    -0.05400
C130        C  0.15098485  0.40021727  0.33943864    -0.30800
N131        N  0.13884724  0.41261320  0.31025892     0.15700
C132        C  0.14893379  0.40174547  0.27690623    -0.30800
H133        H  0.14550882  0.41069088  0.24934613     0.17700
C134        C  0.13847799  0.26391263  0.32529559    -0.29700
N135        N  0.12033852  0.23620151  0.29204128     0.14500
C136        C  0.13270213  0.26339777  0.26267910    -0.29700
C137        C  0.26469512  0.39679096  0.32856301    -0.30000
N138        N  0.28423439  0.40802448  0.29575186     0.15000
H139        H  0.27638523  0.39572373  0.35559488     0.17600
C140        C  0.25942650  0.40091972  0.26691063    -0.30000
H141        H  0.26715821  0.40627861  0.23753548     0.17600
H142        H  0.12187025  0.25084896  0.23304190     0.17600
H143        H  0.14720067  0.40497345  0.36940674     0.17700
H144        H  0.13298129  0.25170563  0.35342327     0.17600
C145        C  0.15218641  0.32746733  0.40292713    -0.11900
C146        C  0.18727030  0.35817734  0.38452106     0.10300
C147        C  0.22126483  0.39185673  0.40843175    -0.11900
C148        C  0.22106792  0.39193989  0.44857370    -0.11900
C149        C  0.18722073  0.35748860  0.46673102     0.10300
C150        C  0.15227401  0.32665893  0.44304380    -0.11900
H151        H  0.12431788  0.30398421  0.38626981     0.14300
H152        H  0.24780384  0.41975696  0.39644471     0.14300
H153        H  0.24726958  0.42058740  0.46517935     0.14300
H154        H  0.12464112  0.30221667  0.45565026     0.14300
C155        C  0.15179402  0.35487758  0.15490300    -0.11900
C156        C  0.18084148  0.35573677  0.13455803     0.10300
C157        C  0.20337586  0.34597847  0.15513894    -0.11900
C158        C  0.20163116  0.34365856  0.19501166    -0.11900
C159        C  0.17869411  0.35312244  0.21644730     0.10300
C160        C  0.15109120  0.35427840  0.19500849    -0.11900
H161        H  0.12817814  0.35234711  0.13999078     0.14300
H162        H  0.22192727  0.33913237  0.14032732     0.14300
H163        H  0.21855279  0.33448616  0.20905752     0.14300
H164        H  0.12737586  0.35203337  0.20858780     0.14300
C165        C  0.08950384  0.18687308  0.28817347    -0.14900
C166        C  0.08534906  0.15914297  0.31445251    -0.30100
H167        H  0.06970685  0.17166175  0.26245758     0.14100
H168        H  0.10676965  0.17306622  0.33867084     0.14700
C169        C  0.32288113  0.42105230  0.28814450    -0.14900
C170        C  0.35176585  0.43478709  0.31482202    -0.30100
H171        H  0.32989180  0.42331402  0.25828453     0.14100
H172        H  0.34676956  0.43499964  0.34505419     0.14700
C173        C  0.09959240  0.43485665  0.28404574    -0.14900
C174        C  0.11877243  0.43382083  0.31426698    -0.30100
H175        H  0.09790344  0.41835828  0.25622837     0.14100
H176        H  0.11961912  0.44964723  0.34221863     0.14700
C177        C  0.09090302  0.18665193  0.04375013    -0.14900
C178        C  0.08410122  0.15633296  0.01424579    -0.30100
H179        H  0.07367474  0.17361432  0.06874837     0.14100
H180        H  0.10300261  0.16799228  0.99040719     0.14700
C181        C  0.32698078  0.43363108  0.06084136    -0.14900
C182        C  0.34552006  0.43086812  0.03106553    -0.30100
H183        H  0.34400015  0.45449548  0.08725650     0.14100
H184        H  0.32870357  0.40906969  0.00499663     0.14700
C185        C  0.09737436  0.43119126  0.02191516    -0.14900
C186        C  0.11757837  0.43220103  0.05212348    -0.30100
H187        H  0.09638260  0.41535777  0.99398520     0.14100
H188        H  0.11805628  0.44850247  0.07969327     0.14700
C189        C  0.98647656  0.97174161  0.42165660    -0.11800
C190        C  0.98770276  0.97391228  0.38813728    -0.13300
C191        C  0.02843719  0.06706672  0.17773864    -0.11800
C192        C  0.02798450  0.06798359  0.14407203    -0.13300
C193        C  0.38203478  0.08387081  0.26647047    -0.14900
C194        C  0.39956417  0.07683951  0.23809392    -0.30100
H195        H  0.38066507  0.07060917  0.29374676     0.14100
H196        H  0.40098316  0.08828855  0.21003029     0.14700
C197        C  0.45242029  0.35901051  0.28818188    -0.14900
C198        C  0.45341904  0.38698886  0.26404469    -0.30100
H199        H  0.47176425  0.37426531  0.31418746     0.14100
H200        H  0.43190887  0.37161587  0.23971274     0.14700
C201        C  0.18424391  0.12465284  0.28971690    -0.14900
C202        C  0.20477721  0.12610598  0.26017106    -0.30100
H203        H  0.19924661  0.14214942  0.31759042     0.14100
H204        H  0.18945922  0.10904118  0.23224716     0.14700
C205        C  0.41571544  0.10731495  0.52068237    -0.14900
C206        C  0.42200502  0.08689749  0.49128772    -0.30100
H207        H  0.41338322  0.10911854  0.06110174     0.14100
H208        H  0.41207798  0.08507357  0.46217909     0.14700
C209        C  0.42798157  0.35671467  0.02129952    -0.14900
C210        C  0.45456564  0.38735621  0.04956794    -0.30100
H211        H  0.42494959  0.36940550  0.99536612     0.14100
H212        H  0.46084222  0.37579362  0.07426568     0.14700
C213        C  0.19813850  0.10840723  0.01041857    -0.14900
C214        C  0.17886059  0.11322366  0.03814580    -0.30100
H215        H  0.18541081  0.08582465  0.48290371     0.14100
H216        H  0.19442938  0.13411457  0.06494500     0.14700
C217        C  0.32151157  0.19318098  0.37768225    -0.11900
C218        C  0.34651912  0.18926491  0.35449354     0.10300
C219        C  0.37561959  0.18884830  0.37397772    -0.11900
C220        C  0.37502884  0.18408143  0.41360288    -0.11900
C221        C  0.34550563  0.17996740  0.43559172     0.10300
C222        C  0.32134654  0.18915741  0.41728185    -0.11900
H223        H  0.30310573  0.20145824  0.36584098     0.12900
H224        H  0.39904294  0.19215339  0.35853321     0.14300
H225        H  0.39864720  0.18528605  0.42695463     0.14300
H226        H  0.30281453  0.19467076  0.43370497     0.14300
C227        C  0.34800332  0.22844754  0.12957505    -0.11900
C228        C  0.33934299  0.19008066  0.10511056     0.10300
C229        C  0.32662612  0.14944693  0.12252408    -0.11900
C230        C  0.32851235  0.14963754  0.16257186    -0.11900
C231        C  0.34319665  0.19051049  0.18701024     0.10300
C232        C  0.34972258  0.22856192  0.16968499    -0.11900
H233        H  0.35182676  0.25777742  0.11813570     0.14300
H234        H  0.31571903  0.11738054  0.10501120     0.14300
H235        H  0.31783510  0.11729661  0.17423387     0.14300
H236        H  0.35533570  0.25828247  0.18707673     0.14300
C237        C  0.34338437  0.17474865  0.55880219     0.31500
C238        C  0.34116065  0.18345247  0.98143268     0.31500
C239        C  0.30354998  0.15235358  0.53674058    -0.04700
C240        C  0.36932348  0.22284478  0.54319244    -0.05500
C241        C  0.35903850  0.15029872  0.53752248    -0.05400
C242        C  0.30047910  0.15881305  0.99860227    -0.04700
C243        C  0.36383928  0.23258151  0.00234276    -0.05500
C244        C  0.35905787  0.16309690  0.00271819    -0.05400
C245        C  0.26197070  0.13633710  0.98485242    -0.30800
N246        N  0.23953349  0.12907976  0.01477324     0.15700
C247        C  0.26579984  0.13419859  0.54655627    -0.30800
H248        H  0.25614529  0.13061934  0.57535205     0.17700
C249        C  0.38748842  0.27660585  0.99104511    -0.29700
N250        N  0.40930061  0.29593088  0.52860805     0.14500
C251        C  0.39432750  0.26883302  0.55805345    -0.29700
C252        C  0.37744946  0.14249194  0.99378746    -0.30000
N253        N  0.38954845  0.13583666  0.02696283     0.15000
H254        H  0.38130395  0.13257641  0.96544414     0.17600
C255        C  0.38128688  0.13648200  0.54876318    -0.30000
H256        H  0.39046056  0.13724316  0.57781970     0.17600
H257        H  0.40116737  0.28198950  0.58799257     0.17600
H258        H  0.25088363  0.12702481  0.95520548     0.17700
H259        H  0.39308214  0.28578140  0.96190642     0.17600
C260        C  0.34153156  0.17877372  0.80982540     0.31500
C261        C  0.34254646  0.17417992  0.73017240     0.31500
C262        C  0.30201699  0.15756262  0.78708752    -0.04700
C263        C  0.36920278  0.22514629  0.79227935    -0.05500
C264        C  0.35341309  0.14916858  0.79069736    -0.05400
C265        C  0.30277418  0.15582195  0.74709524    -0.04700
C266        C  0.37017569  0.22294320  0.75230323    -0.05500
C267        C  0.35490721  0.14739409  0.75062284    -0.05400
C268        C  0.26540322  0.13765362  0.73250153    -0.30800
N269        N  0.24208510  0.12820657  0.76210537     0.15700
C270        C  0.26375817  0.13887743  0.79531389    -0.30800
H271        H  0.25200883  0.13190243  0.82318961     0.17700
C272        C  0.39393387  0.26820485  0.74290733    -0.29700
N273        N  0.40597820  0.29724047  0.77555270     0.14500
C274        C  0.39098113  0.27147141  0.80573971    -0.29700
C275        C  0.37248705  0.12575528  0.74133354    -0.30000
N276        N  0.37941995  0.11267282  0.77389180     0.15000
H277        H  0.38151027  0.12205404  0.71352325     0.17600
C278        C  0.36730937  0.12609628  0.80372122    -0.30000
H279        H  0.36962852  0.12028305  0.83303847     0.17600
H280        H  0.39430392  0.28543908  0.83510820     0.17600
H281        H  0.25588803  0.13202336  0.70257948     0.17700
H282        H  0.40021239  0.27936118  0.71441921     0.17600
C283        C  0.13919032  0.07919345  0.53743688     0.77900
Tb284      Tb  0.45462069  0.00063599  0.51916069     1.80700
O285        O  0.11937916  0.07026086  0.56647871    -0.50100
O286        O  0.07232501  0.46538263  0.55274184    -0.57500
C287        C  0.05912990  0.10709939  0.51435858     0.93800
O288        O  0.44646981  0.05850551  0.53332812    -0.57100
Tb289      Tb  0.05645278  0.02096590  0.53386992     1.78100
O290        O  0.40314990  0.44690684  0.50705533    -0.57600
O291        O  0.50757671  0.44976206  0.49448990    -0.76400
O292        O  0.06140468  0.07635346  0.49780457    -0.75700
O293        O  0.01141413  0.98223431  0.97681324    -0.60900
C294        C  0.47550530  0.42248202  0.51025327     0.93300
O295        O  0.48404086  0.01326377  0.57882739    -0.72900
C296        C  0.37320386  0.94507336  0.52841086     0.76800
C297        C  0.07981808  0.45451586  0.52083360     0.77800
O298        O  0.11811155  0.06209124  0.50636924    -0.58100
O299        O  0.07307472  0.46958215  0.49293891    -0.50100
O300        O  0.46660557  0.99444044  0.96312053    -0.76200
O301        O  0.05874168  0.06605192  0.58650265    -0.60100
C302        C  0.03171195  0.06200236  0.60548227     0.91600
C303        C  0.99019671  0.98867069  0.95696265     0.92800
C304        C  0.43385523  0.07132208  0.00986360     0.77100
O305        O  0.39872886  0.97189745  0.55544245    -0.49500
O306        O  0.45702728  0.56056770  0.98382586    -0.50600
O307        O  0.45995298  0.43748918  0.53054736    -0.63500
O308        O  0.03048948  0.09606928  0.53458938    -0.64600
C309        C  0.13832524  0.08242688  0.78539292     0.77900
Tb310      Tb  0.45044617  0.99610067  0.77455213     1.80700
O311        O  0.11877896  0.07382720  0.81464419    -0.50100
O312        O  0.07797478  0.47859249  0.81683402    -0.57500
C313        C  0.05278143  0.10560981  0.80819297     0.93800
O314        O  0.43704288  0.04932256  0.79151654    -0.57100
Tb315      Tb  0.05622862  0.02058367  0.78251038     1.78100
O316        O  0.39800565  0.45848288  0.77145350    -0.57600
O317        O  0.50977442  0.44885679  0.74929694    -0.76400
O318        O  0.05858827  0.07820952  0.82168046    -0.75700
O319        O  0.05577386  0.06289445  0.73608437    -0.60900
C320        C  0.47378486  0.42373880  0.75765578     0.93300
O321        O  0.47573563  0.99982618  0.83465684    -0.72900
C322        C  0.36931664  0.93465682  0.78328808     0.76800
C323        C  0.07616861  0.45456608  0.78759666     0.77800
O324        O  0.11714002  0.06281433  0.75450443    -0.58100
O325        O  0.06182044  0.45822291  0.75780948    -0.50100
O326        O  0.46972306  0.98653794  0.71606254    -0.76200
O327        O  0.01168497  0.98096779  0.82860341    -0.60100
C328        C  0.99121595  0.98982904  0.84743737     0.91600
C329        C  0.02787877  0.05234076  0.71307908     0.92800
C330        C  0.42656666  0.05082835  0.75818231     0.77100
O331        O  0.39406980  0.96229026  0.81053896    -0.49500
O332        O  0.44299839  0.53832301  0.73880590    -0.50600
O333        O  0.45613402  0.43994515  0.77183224    -0.63500
O334        O  0.02163988  0.09038650  0.78765303    -0.64600
C335        C  0.18663025  0.35703067  0.51101056     0.31500
C336        C  0.18329805  0.35829102  0.59022974     0.31500
C337        C  0.16698980  0.37781294  0.52963234    -0.04700
C338        C  0.16411124  0.30937144  0.52735660    -0.05500
C339        C  0.22661422  0.38399852  0.53486796    -0.05400
C340        C  0.16596421  0.37942590  0.56954457    -0.04700
C341        C  0.16246128  0.31047581  0.56720904    -0.05500
C342        C  0.22502934  0.38535749  0.57497694    -0.05400
C343        C  0.14877371  0.40097995  0.57952134    -0.30800
N344        N  0.13683717  0.40903300  0.54736687     0.15700
C345        C  0.14826733  0.39567133  0.51657295    -0.30800
H346        H  0.14339420  0.39852844  0.48700568     0.17700
C347        C  0.13967085  0.26534599  0.57616526    -0.29700
N348        N  0.12755862  0.23669787  0.54338265     0.14500
C349        C  0.14237258  0.26294598  0.51327709    -0.29700
C350        C  0.26200936  0.40211537  0.59012322    -0.30000
N351        N  0.28499621  0.40830672  0.56098968     0.15000
H352        H  0.27111415  0.40705361  0.62005909     0.17600
C353        C  0.26345559  0.39622553  0.52742532    -0.30000
H354        H  0.27334837  0.39451567  0.49957191     0.17600
H355        H  0.13617213  0.24926715  0.48348900     0.17600
H356        H  0.14539813  0.41116328  0.60799691     0.17700
H357        H  0.13116068  0.25393479  0.60443182     0.17600
C358        C  0.17785061  0.35476036  0.76091537     0.31500
C359        C  0.18383021  0.35647238  0.84012727     0.31500
C360        C  0.16008337  0.37547930  0.78432602    -0.04700
C361        C  0.15822767  0.30748141  0.77723320    -0.05500
C362        C  0.21986710  0.38385651  0.78029866    -0.05400
C363        C  0.16287166  0.37584755  0.82420733    -0.04700
C364        C  0.16136976  0.30815937  0.81702592    -0.05500
C365        C  0.22347985  0.38398730  0.82012256    -0.05400
C366        C  0.14612181  0.39609882  0.83987620    -0.30800
N367        N  0.13335584  0.40803732  0.81101090     0.15700
C368        C  0.14289502  0.39710064  0.77733222    -0.30800
H369        H  0.13937746  0.40676205  0.75016402     0.17700
C370        C  0.13823436  0.26224595  0.82528354    -0.29700
N371        N  0.12039360  0.23419216  0.79207270     0.14500
C372        C  0.13232285  0.26144384  0.76270613    -0.29700
C373        C  0.26246775  0.40117223  0.82862438    -0.30000
N374        N  0.28210504  0.41373002  0.79589692     0.15000
H375        H  0.27480749  0.40148580  0.85579143     0.17600
C376        C  0.25653454  0.40419096  0.76681103    -0.30000
H377        H  0.26396081  0.40913829  0.73730597     0.17600
H378        H  0.12130777  0.24875360  0.73312807     0.17600
H379        H  0.14350619  0.40185921  0.87000301     0.17700
H380        H  0.13278141  0.25017959  0.85345993     0.17600
C381        C  0.14953420  0.32510213  0.90279192    -0.11900
C382        C  0.18434890  0.35697201  0.88448393     0.10300
C383        C  0.21763167  0.39214423  0.90853181    -0.11900
C384        C  0.21723053  0.39236734  0.94869523    -0.11900
C385        C  0.18416019  0.35640457  0.96676735     0.10300
C386        C  0.14952559  0.32449081  0.94294807    -0.11900
H387        H  0.12189965  0.30058467  0.88600881     0.14300
H388        H  0.24359746  0.42104999  0.89664909     0.14300
H389        H  0.24262887  0.42210653  0.96543497     0.14300
H390        H  0.12199592  0.29941504  0.95536968     0.14300
C391        C  0.15129050  0.35563720  0.65424232    -0.11900
C392        C  0.17979779  0.35494752  0.63429071     0.10300
C393        C  0.20114328  0.34389417  0.65541702    -0.11900
C394        C  0.19881420  0.34162766  0.69534013    -0.11900
C395        C  0.17586323  0.35153127  0.71624759     0.10300
C396        C  0.14974515  0.35467549  0.69427460    -0.11900
H397        H  0.12817986  0.35379349  0.63910606     0.14300
H398        H  0.21940838  0.33629486  0.64102234     0.14300
H399        H  0.21561492  0.33265620  0.71000523     0.14300
H400        H  0.12615888  0.35321468  0.70721123     0.14300
C401        C  0.08960745  0.18457539  0.78799470    -0.14900
C402        C  0.08385122  0.15650888  0.81482828    -0.30100
H403        H  0.07114986  0.16917923  0.76140542     0.14100
H404        H  0.10398624  0.17036753  0.84010948     0.14700
C405        C  0.32173114  0.42983794  0.78908677    -0.14900
C406        C  0.34851210  0.43850317  0.81617072    -0.30100
H407        H  0.33057874  0.43633241  0.75986762     0.14100
H408        H  0.34167724  0.43446524  0.84595299     0.14700
C409        C  0.09133233  0.42698337  0.78674394    -0.14900
C410        C  0.11415994  0.43013177  0.81556156    -0.30100
H411        H  0.08577065  0.40590815  0.76019299     0.14100
H412        H  0.11875331  0.45005959  0.84258420     0.14700
C413        C  0.09848187  0.18719913  0.54240396    -0.14900
C414        C  0.09133105  0.15693001  0.51263813    -0.30100
H415        H  0.08168103  0.17388502  0.56761836     0.14100
H416        H  0.10959641  0.16841278  0.48832806     0.14700
C417        C  0.32574054  0.42597365  0.56547051    -0.14900
C418        C  0.34340263  0.41899739  0.53724604    -0.30100
H419        H  0.34297219  0.44772827  0.59153989     0.14100
H420        H  0.32624109  0.39627954  0.51159342     0.14700
C421        C  0.09836942  0.43066295  0.51711086    -0.14900
C422        C  0.11513089  0.42801372  0.54835043    -0.30100
H423        H  0.10098799  0.41891590  0.48879058     0.14100
H424        H  0.11227809  0.44077611  0.57619144     0.14700
C425        C  0.98286204  0.97366189  0.91782353    -0.11800
C426        C  0.98266149  0.97494606  0.88421562    -0.13300
C427        C  0.03785109  0.07200747  0.67807973    -0.11800
C428        C  0.03986551  0.07604495  0.64481720    -0.13300
C429        C  0.39845343  0.09090063  0.77904871    -0.14900
C430        C  0.41007554  0.07596208  0.75020836    -0.30100
H431        H  0.40265686  0.08535235  0.80811030     0.14100
H432        H  0.40526904  0.07941335  0.72072567     0.14700
C433        C  0.42670474  0.34673311  0.77813189    -0.14900
C434        C  0.45155755  0.37298219  0.75193162    -0.30100
H435        H  0.42343776  0.36348103  0.80326006     0.14100
H436        H  0.45831735  0.35763686  0.72870312     0.14700
C437        C  0.18149492  0.10956331  0.78781723    -0.14900
C438        C  0.20087848  0.10848441  0.75814192    -0.30100
H439        H  0.19696062  0.12727083  0.81546488     0.14100
H440        H  0.18499497  0.09126297  0.73046728     0.14700
C441        C  0.40900584  0.11463557  0.03208253    -0.14900
C442        C  0.41993847  0.09926544  0.00294922    -0.30100
H443        H  0.42539288  0.10734161  0.54947765     0.14100
H444        H  0.41606270  0.10411565  0.97364728     0.14700
C445        C  0.43280877  0.34578475  0.53304031    -0.14900
C446        C  0.45567502  0.37208865  0.50573656    -0.30100
H447        H  0.43148105  0.36244194  0.55948705     0.14100
H448        H  0.46009332  0.35669649  0.48054968     0.14700
C449        C  0.20148030  0.10250876  0.51058206    -0.14900
C450        C  0.18232593  0.10410118  0.54026685    -0.30100
H451        H  0.18205179  0.08790427  0.98355974     0.14100
H452        H  0.19786608  0.12091618  0.56803520     0.14700
C453        C  0.31700391  0.18809697  0.87526644    -0.11900
C454        C  0.34302930  0.18339216  0.85459633     0.10300
C455        C  0.37330629  0.18790151  0.87685989    -0.11900
C456        C  0.37267156  0.18747304  0.91705669    -0.11900
C457        C  0.34218656  0.18359943  0.93701780     0.10300
C458        C  0.31675171  0.18845470  0.91547224    -0.11900
H459        H  0.29777267  0.19358020  0.86080223     0.12900
H460        H  0.39802901  0.19234820  0.86331964     0.14300
H461        H  0.39705455  0.19193957  0.93241140     0.14300
H462        H  0.29716582  0.19395096  0.92969368     0.14300
C463        C  0.33978460  0.20549884  0.62667671    -0.11900
C464        C  0.34142612  0.17323834  0.60313086     0.10300
C465        C  0.33708632  0.13678902  0.62143320    -0.11900
C466        C  0.33748545  0.13684382  0.66164846    -0.11900
C467        C  0.34113812  0.17268721  0.68556773     0.10300
C468        C  0.33919202  0.20487997  0.66687664    -0.11900
H469        H  0.33856988  0.23117044  0.61402000     0.14300
H470        H  0.33224975  0.10712203  0.60475109     0.14300
H471        H  0.33313712  0.10742363  0.67361247     0.14300
H472        H  0.33715105  0.22988697  0.68340289     0.14300
C473        C  0.34456820  0.68169972  0.06439919     0.31500
C474        C  0.34336574  0.66509577  0.48392775     0.31500
C475        C  0.30408026  0.64608180  0.04267897    -0.04700
C476        C  0.35991023  0.72674286  0.04575380    -0.05500
C477        C  0.36991781  0.66870037  0.04579537    -0.05400
C478        C  0.30232333  0.63374109  0.50055604    -0.04700
C479        C  0.36100690  0.71240049  0.50642914    -0.05500
C480        C  0.36607333  0.64964988  0.50399851    -0.05400
C481        C  0.26407473  0.61371840  0.48715061    -0.30800
N482        N  0.24171153  0.60558531  0.51732189     0.15700
C483        C  0.26651586  0.62900406  0.05239904    -0.30800
H484        H  0.25819738  0.63112540  0.08103959     0.17700
C485        C  0.38001894  0.75690766  0.49668229    -0.29700
N486        N  0.38874230  0.79685335  0.02579944     0.14500
C487        C  0.38037088  0.77369650  0.05738707    -0.29700
C488        C  0.38801904  0.63365437  0.49420073    -0.30000
N489        N  0.40220641  0.62883970  0.52695356     0.15000
H490        H  0.39289993  0.62547685  0.46568822     0.17600
C491        C  0.39236215  0.65595225  0.05910330    -0.30000
H492        H  0.39847564  0.65459589  0.08873691     0.17600
H493        H  0.39001936  0.79051982  0.08622770     0.17600
H494        H  0.25356181  0.60847983  0.45767247     0.17700
H495        H  0.38503582  0.76745878  0.46794889     0.17600
C496        C  0.34295695  0.67759436  0.31428819     0.31500
C497        C  0.34438504  0.67936490  0.23520968     0.31500
C498        C  0.30497446  0.66436488  0.29269123    -0.04700
C499        C  0.37499633  0.72468815  0.29919512    -0.05500
C500        C  0.34899667  0.64391856  0.29186110    -0.05400
C501        C  0.30617105  0.66574171  0.25290410    -0.04700
C502        C  0.37563998  0.72575101  0.25936335    -0.05500
C503        C  0.35094654  0.64569329  0.25193905    -0.05400
C504        C  0.26919386  0.64913350  0.23844132    -0.30800
N505        N  0.24536833  0.63744171  0.26783271     0.15700
C506        C  0.26641191  0.64518827  0.30076331    -0.30800
H507        H  0.25349614  0.63391921  0.32778950     0.17700
C508        C  0.40214845  0.77191738  0.25259538    -0.29700
N509        N  0.41714272  0.79863736  0.28675522     0.14500
C510        C  0.40119907  0.77015617  0.31530306    -0.29700
C511        C  0.37243239  0.62957494  0.24069108    -0.30000
N512        N  0.38020335  0.61486607  0.27134881     0.15000
H513        H  0.38519480  0.63302382  0.21343139     0.17600
C514        C  0.36586126  0.62306380  0.30231132    -0.30000
H515        H  0.37044600  0.61736449  0.33095193     0.17600
H516        H  0.40610938  0.78197524  0.34549322     0.17600
H517        H  0.25982975  0.64412165  0.20854680     0.17700
H518        H  0.40893662  0.78540656  0.22492996     0.17600
C519        C  0.13991233  0.57383131  0.04152623     0.77900
Tb520      Tb  0.47043381  0.52100501  0.02377855     1.80700
O521        O  0.11838342  0.56098896  0.06956836    -0.50100
O522        O  0.07798215  0.98681295  0.06167650    -0.57500
C523        C  0.05194377  0.59924579  0.01537667     0.93800
O524        O  0.45616206  0.57272523  0.04342327    -0.57100
Tb525      Tb  0.05766012  0.51504071  0.03302898     1.78100
O526        O  0.38712557  0.95412942  0.99769597    -0.57600
O527        O  0.49419169  0.95591607  0.05935883    -0.76400
O528        O  0.06895256  0.58713401  0.03518841    -0.75700
O529        O  0.03205502  0.50719596  0.47016041    -0.60900
C530        C  0.45875919  0.92734111  0.04557596     0.93300
O531        O  0.49708216  0.52951203  0.08421261    -0.72900
C532        C  0.38879624  0.45993806  0.03010541     0.76800
C533        C  0.07223855  0.95963536  0.03310743     0.77800
O534        O  0.12077181  0.56097220  0.00947985    -0.58100
O535        O  0.05470968  0.96124618  0.00485899    -0.50100
O536        O  0.49217500  0.50481638  0.47299729    -0.76200
O537        O  0.03741754  0.52295061  0.09221085    -0.60100
C538        C  0.02391446  0.54475920  0.10429338     0.91600
C539        C  0.99591842  0.47873078  0.45881072     0.92800
C540        C  0.44619921  0.56373281  0.51234119     0.77100
O541        O  0.41287998  0.48619092  0.05819749    -0.49500
O542        O  0.43876299  0.03437492  0.47478130    -0.50600
O543        O  0.44201584  0.93951413  0.02520671    -0.63500
O544        O  0.01936826  0.56927260  0.99655716    -0.64600
C545        C  0.13949947  0.58355414  0.28948637     0.77900
Tb546      Tb  0.46785671  0.51986309  0.27577555     1.80700
O547        O  0.11913424  0.57216122  0.31833248    -0.50100
O548        O  0.07839830  0.98635009  0.31258971    -0.57500
C549        C  0.05216645  0.60045995  0.31039813     0.93800
O550        O  0.45630270  0.57571414  0.28257552    -0.57100
Tb551      Tb  0.05768846  0.51708805  0.28480996     1.78100
O552        O  0.38527186  0.94711645  0.24401445    -0.57600
O553        O  0.49267834  0.94898234  0.29746500    -0.76400
O554        O  0.06036004  0.57507810  0.32366751    -0.75700
O555        O  0.05039109  0.55233211  0.23587761    -0.60900
C556        C  0.46262883  0.92562332  0.27362282     0.93300
O557        O  0.49653875  0.53275401  0.33752959    -0.72900
C558        C  0.39252571  0.45812553  0.30242811     0.76800
C559        C  0.08172474  0.96856481  0.28203056     0.77800
O560        O  0.11909093  0.56434590  0.25808554    -0.58100
O561        O  0.07180167  0.97796170  0.25240924    -0.50100
O562        O  0.49978354  0.52757206  0.21924856    -0.76200
O563        O  0.01292924  0.47379063  0.32952029    -0.60100
C564        C  0.99420563  0.48384275  0.35000325     0.91600
C565        C  0.02017181  0.53785535  0.21440316     0.92800
C566        C  0.43320006  0.56136028  0.25321704     0.77100
O567        O  0.42323436  0.48392767  0.32464944    -0.49500
O568        O  0.42685011  0.03491028  0.22153013    -0.50600
O569        O  0.45264655  0.94485749  0.25243188    -0.63500
O570        O  0.02027852  0.58318686  0.29052824    -0.64600
C571        C  0.16548633  0.84712794  0.01586563     0.31500
C572        C  0.16692641  0.84892600  0.09507842     0.31500
C573        C  0.15186066  0.87364034  0.03703249    -0.04700
C574        C  0.13966430  0.79952853  0.03224356    -0.05500
C575        C  0.20584896  0.86852764  0.03695101    -0.05400
C576        C  0.15292356  0.87521940  0.07703918    -0.04700
C577        C  0.14047640  0.80061455  0.07225109    -0.05500
C578        C  0.20693879  0.87052329  0.07694917    -0.05400
C579        C  0.13850022  0.89946725  0.08941552    -0.30800
N580        N  0.12703984  0.91021429  0.05848259     0.15700
C581        C  0.13537783  0.89493462  0.02633741    -0.30800
H582        H  0.12979104  0.89877271  0.99730861     0.17700
C583        C  0.12246320  0.75569123  0.08101645    -0.29700
N584        N  0.11034655  0.72752703  0.04789890     0.14500
C585        C  0.12128349  0.75381541  0.01802323    -0.29700
C586        C  0.24567295  0.89129501  0.08941313    -0.30000
N587        N  0.26723260  0.89946741  0.05849956     0.15000
H588        H  0.25764686  0.90010910  0.11874888     0.17600
C589        C  0.24312002  0.88537045  0.02642146    -0.30000
H590        H  0.25205350  0.88750105  0.99748128     0.17600
H591        H  0.11905210  0.74108408  0.98850359     0.17600
H592        H  0.13582885  0.90827993  0.11870981     0.17700
H593        H  0.12039394  0.74463243  0.10932550     0.17600
C594        C  0.16857971  0.84898794  0.26572513     0.31500
C595        C  0.16943045  0.85006477  0.34508671     0.31500
C596        C  0.15465666  0.87526994  0.28719375    -0.04700
C597        C  0.14334427  0.80144086  0.28193555    -0.05500
C598        C  0.20921652  0.87193209  0.28711686    -0.05400
C599        C  0.15456335  0.87527322  0.32706807    -0.04700
C600        C  0.14415317  0.80171534  0.32183215    -0.05500
C601        C  0.20969514  0.87194931  0.32714323    -0.05400
C602        C  0.13960148  0.89868290  0.34005716    -0.30800
N603        N  0.13092595  0.91299050  0.30956180     0.15700
C604        C  0.14110072  0.90005468  0.27743966    -0.30800
H605        H  0.13950825  0.90891161  0.24915191     0.17700
C606        C  0.12303000  0.75578669  0.32958602    -0.29700
N607        N  0.10850616  0.72822275  0.29592797     0.14500
C608        C  0.12060959  0.75563293  0.26673958    -0.29700
C609        C  0.24735864  0.88786717  0.33946573    -0.30000
N610        N  0.26951419  0.89824954  0.30868196     0.15000
H611        H  0.25765320  0.89011019  0.36842339     0.17600
C612        C  0.24682583  0.88977304  0.27690834    -0.30000
H613        H  0.25725694  0.89660873  0.24848018     0.17600
H614        H  0.11386062  0.74306455  0.23664957     0.17600
H615        H  0.13481954  0.90431188  0.36948625     0.17700
H616        H  0.11850014  0.74312098  0.35747542     0.17600
C617        C  0.13445344  0.81688841  0.40758584    -0.11900
C618        C  0.16867412  0.85072403  0.38948839     0.10300
C619        C  0.20078844  0.88762652  0.41376899    -0.11900
C620        C  0.20058702  0.88728914  0.45392366    -0.11900
C621        C  0.16871855  0.84946963  0.47169977     0.10300
C622        C  0.13460753  0.81594607  0.44773060    -0.11900
H623        H  0.10713592  0.79111333  0.39080824     0.14300
H624        H  0.22602181  0.91749941  0.40184880     0.14300
H625        H  0.22543635  0.91738912  0.47101409     0.14300
H626        H  0.10757973  0.78923144  0.45997515     0.14300
C627        C  0.13692238  0.84457284  0.16000706    -0.11900
C628        C  0.16624216  0.84685393  0.13914758     0.10300
C629        C  0.19080916  0.83966795  0.15938315    -0.11900
C630        C  0.19083874  0.83902148  0.19947655    -0.11900
C631        C  0.16656271  0.84593593  0.22116805     0.10300
C632        C  0.13702169  0.84400282  0.20008605    -0.11900
H633        H  0.11301711  0.84186968  0.14539566     0.14300
H634        H  0.20942247  0.83321850  0.14425164     0.14300
H635        H  0.20928563  0.83182525  0.21318968     0.14300
H636        H  0.11307906  0.84072538  0.21428119     0.14300
C637        C  0.08212390  0.67819536  0.29102294    -0.14900
C638        C  0.08062286  0.65158212  0.31700418    -0.30100
H639        H  0.06339020  0.66154462  0.26463897     0.14100
H640        H  0.10144080  0.66722124  0.34188814     0.14700
C641        C  0.31063548  0.91677324  0.30994617    -0.14900
C642        C  0.32708544  0.91232988  0.27894939    -0.30100
H643        H  0.32897887  0.93676892  0.33602312     0.14100
H644        H  0.30866914  0.89156860  0.25314751     0.14700
C645        C  0.09727360  0.94124277  0.28046107    -0.14900
C646        C  0.11353329  0.93737789  0.31162965    -0.30100
H647        H  0.09647611  0.92548671  0.25258328     0.14100
H648        H  0.11329389  0.95264263  0.33942148     0.14700
C649        C  0.09358925  0.67901616  0.04570281    -0.14900
C650        C  0.06967757  0.64899362  0.01574544    -0.30100
H651        H  0.09905584  0.66618042  0.07007924     0.14100
H652        H  0.06114350  0.66060197  0.99281574     0.14700
C653        C  0.30918215  0.92225715  0.06018850    -0.14900
C654        C  0.32735211  0.92082459  0.02953823    -0.30100
H655        H  0.32657162  0.94234894  0.08669099     0.14100
H656        H  0.31025447  0.89995553  0.00324489     0.14700
C657        C  0.08681240  0.93116693  0.03169425    -0.14900
C658        C  0.10950500  0.93439141  0.06075962    -0.30100
H659        H  0.08042012  0.90907089  0.00556279     0.14100
H660        H  0.11459657  0.95550286  0.08720062     0.14700
C661        C  0.98647380  0.46564671  0.41959683    -0.11800
C662        C  0.98559458  0.46772899  0.38621860    -0.13300
C663        C  0.02607802  0.55292112  0.17756293    -0.11800
C664        C  0.02739747  0.55577216  0.14405145    -0.13300
C665        C  0.40603800  0.60180188  0.27431301    -0.14900
C666        C  0.41099318  0.57969641  0.24527680    -0.30100
H667        H  0.41950884  0.60675898  0.30255341     0.14100
H668        H  0.39553186  0.57103087  0.21749274     0.14700
C669        C  0.44220174  0.84894744  0.29243388    -0.14900
C670        C  0.43900541  0.87413424  0.26834045    -0.30100
H671        H  0.46187752  0.86635136  0.31814729     0.14100
H672        H  0.41714381  0.85612023  0.24426910     0.14700
C673        C  0.18289456  0.61325165  0.29286856    -0.14900
C674        C  0.20369612  0.61538695  0.26331868    -0.30100
H675        H  0.19756509  0.63009309  0.32096176     0.14100
H676        H  0.18864791  0.59895331  0.23521344     0.14700
C677        C  0.42506832  0.61178903  0.53175019    -0.14900
C678        C  0.43047924  0.58943393  0.50337162    -0.30100
H679        H  0.42945467  0.61687255  0.06214725     0.14100
H680        H  0.42014179  0.58628338  0.47412069     0.14700
C681        C  0.40858567  0.84570990  0.02449548    -0.14900
C682        C  0.43689660  0.87777309  0.05096933    -0.30100
H683        H  0.40238426  0.85678608  0.99932596     0.14100
H684        H  0.44609961  0.86750078  0.07440129     0.14700
C685        C  0.20209494  0.59628678  0.01628190    -0.14900
C686        C  0.18270065  0.59747649  0.04587933    -0.30100
H687        H  0.18596140  0.57572712  0.48552662     0.14100
H688        H  0.19722402  0.61190899  0.07428787     0.14700
C689        C  0.31833185  0.67947871  0.38183089    -0.11900
C690        C  0.34478475  0.67817462  0.35882232     0.10300
C691        C  0.37533621  0.68084483  0.37871709    -0.11900
C692        C  0.37457603  0.67524616  0.41817257    -0.11900
C693        C  0.34411800  0.66886523  0.43995843     0.10300
C694        C  0.31837997  0.67555670  0.42143255    -0.11900
H695        H  0.29893672  0.68630765  0.37007956     0.12900
H696        H  0.40023138  0.68753365  0.36378904     0.14300
H697        H  0.39911353  0.67841776  0.43162301     0.14300
H698        H  0.29883582  0.67936402  0.43779861     0.14300
C699        C  0.34474140  0.71542455  0.13323631    -0.11900
C700        C  0.34303080  0.68115957  0.10873554     0.10300
C701        C  0.33592746  0.64281082  0.12603983    -0.11900
C702        C  0.33594765  0.64186715  0.16606740    -0.11900
C703        C  0.34294795  0.67925114  0.19086723     0.10300
C704        C  0.34477444  0.71451604  0.17338535    -0.11900
H705        H  0.34425409  0.74201146  0.12176885     0.14300
H706        H  0.33030130  0.61313903  0.10843721     0.14300
H707        H  0.32937476  0.61090436  0.17723111     0.14300
H708        H  0.34580177  0.74137626  0.19081050     0.14300
C709        C  0.34234468  0.66736133  0.56321079     0.31500
C710        C  0.34340193  0.67551105  0.98474524     0.31500
C711        C  0.30214871  0.63537781  0.54063843    -0.04700
C712        C  0.36081354  0.71410259  0.54633542    -0.05500
C713        C  0.36590041  0.65196302  0.54412006    -0.05400
C714        C  0.30329532  0.64243284  0.00240678    -0.04700
C715        C  0.35835457  0.72282529  0.00561626    -0.05500
C716        C  0.36910743  0.66467413  0.00565482    -0.05400
C717        C  0.26469016  0.62113701  0.98952361    -0.30800
N718        N  0.24276547  0.61363698  0.01990512     0.15700
C719        C  0.26466654  0.61869953  0.55005800    -0.30800
H720        H  0.25586775  0.61933839  0.57875256     0.17700
C721        C  0.37543838  0.76630152  0.99419760    -0.29700
N722        N  0.39167145  0.78579192  0.52929310     0.14500
C723        C  0.38040486  0.76038979  0.55974643    -0.29700
C724        C  0.38960525  0.64677479  0.99612700    -0.30000
N725        N  0.40408801  0.64246816  0.02889226     0.15000
H726        H  0.39166238  0.63487885  0.96778391     0.17600
C727        C  0.38944447  0.64070735  0.55719660    -0.30000
H728        H  0.39690797  0.64083522  0.58676244     0.17600
H729        H  0.38745114  0.77518399  0.58925108     0.17600
H730        H  0.25357662  0.61463938  0.96011434     0.17700
H731        H  0.37967569  0.77557165  0.96506216     0.17600
C732        C  0.33831998  0.67031559  0.81275776     0.31500
C733        C  0.33996027  0.66619645  0.73347378     0.31500
C734        C  0.30004563  0.65422061  0.78995104    -0.04700
C735        C  0.36945879  0.71612300  0.79555947    -0.05500
C736        C  0.34571210  0.63618823  0.79335821    -0.05400
C737        C  0.30127871  0.65251839  0.75007597    -0.04700
C738        C  0.37046125  0.71400446  0.75561779    -0.05500
C739        C  0.34795281  0.63518458  0.75320635    -0.05400
C740        C  0.26454307  0.63589405  0.73473905    -0.30800
N741        N  0.24090195  0.62726307  0.76380288     0.15700
C742        C  0.26181101  0.63700634  0.79739143    -0.30800
H743        H  0.24903978  0.62879229  0.82475354     0.17700
C744        C  0.39387977  0.75915653  0.74603428    -0.29700
N745        N  0.40620726  0.78840754  0.77858799     0.14500
C746        C  0.39119068  0.76261953  0.80879794    -0.29700
C747        C  0.37219239  0.62194391  0.74506962    -0.30000
N748        N  0.38086712  0.61058782  0.77751604     0.15000
H749        H  0.38573055  0.62487947  0.71840214     0.17600
C750        C  0.36457682  0.61868280  0.80672227    -0.30000
H751        H  0.36896193  0.61521155  0.83621243     0.17600
H752        H  0.39334464  0.77656310  0.83790146     0.17600
H753        H  0.25535914  0.62947545  0.70464020     0.17700
H754        H  0.39847881  0.76984753  0.71739119     0.17600
C755        C  0.14033936  0.57044772  0.53916556     0.77900
Tb756      Tb  0.46796418  0.50741124  0.53047096     1.80700
O757        O  0.11868965  0.55693054  0.56711073    -0.50100
O758        O  0.07104448  0.97544845  0.56257318    -0.57500
C759        C  0.05389878  0.59936291  0.51503661     0.93800
O760        O  0.45448267  0.56078202  0.54612944    -0.57100
Tb761      Tb  0.05830714  0.51387795  0.53029774     1.78100
O762        O  0.38813100  0.94407295  0.49778150    -0.57600
O763        O  0.48993926  0.93456139  0.49029055    -0.76400
O764        O  0.07054191  0.58674911  0.53479171    -0.75700
O765        O  0.03162884  0.50760210  0.97235292    -0.60900
C766        C  0.45773468  0.91070579  0.50662500     0.93300
O767        O  0.49569569  0.51465510  0.58991567    -0.72900
C768        C  0.38657001  0.44634987  0.53687189     0.76800
C769        C  0.07311767  0.95663338  0.53189053     0.77800
O770        O  0.12155902  0.55980490  0.50720760    -0.58100
O771        O  0.06388776  0.96684353  0.50234874    -0.50100
O772        O  0.48645547  0.50738914  0.96434535    -0.76200
O773        O  0.03981431  0.52150558  0.59027101    -0.60100
C774        C  0.02681781  0.54363535  0.60285799     0.91600
C775        C  0.99536562  0.48102204  0.96102550     0.92800
C776        C  0.45063700  0.58043435  0.01045423     0.77100
O777        O  0.41053715  0.47396168  0.56461941    -0.49500
O778        O  0.44027090  0.05156464  0.98319717    -0.50600
O779        O  0.44354085  0.92907683  0.52469979    -0.63500
O780        O  0.02140653  0.56959073  0.49599028    -0.64600
C781        C  0.13639650  0.57863849  0.78600676     0.77900
Tb782      Tb  0.46667329  0.51203378  0.78251420     1.80700
O783        O  0.11734174  0.56902608  0.81564422    -0.50100
O784        O  0.07370587  0.97873598  0.81361177    -0.57500
C785        C  0.04812408  0.59699862  0.80758536     0.93800
O786        O  0.45432822  0.56707906  0.79622702    -0.57100
Tb787      Tb  0.05453164  0.51399576  0.78489375     1.78100
O788        O  0.38500836  0.93557017  0.75269186    -0.57600
O789        O  0.49681089  0.94144685  0.74259498    -0.76400
O790        O  0.05575153  0.57178736  0.82223079    -0.75700
O791        O  0.05176202  0.55156400  0.73551767    -0.60900
C792        C  0.46339734  0.91339764  0.75587707     0.93300
O793        O  0.49528150  0.51371999  0.83976675    -0.72900
C794        C  0.38929686  0.45931728  0.80561258     0.76800
C795        C  0.07681809  0.95996372  0.78346528     0.77800
O796        O  0.11475139  0.55817829  0.75542010    -0.58100
O797        O  0.06738990  0.96897091  0.75326036    -0.50100
O798        O  0.48246854  0.49847622  0.72323556    -0.76200
O799        O  0.01259506  0.47904889  0.83369550    -0.60100
C800        C  0.99090678  0.48707853  0.85109150     0.91600
C801        C  0.02285460  0.53671333  0.71212329     0.92800
C802        C  0.44045148  0.56391616  0.76316578     0.77100
O803        O  0.41915165  0.48305979  0.82910022    -0.49500
O804        O  0.42987401  0.02697959  0.73256702    -0.50600
O805        O  0.44484996  0.92683951  0.77274663    -0.63500
O806        O  0.01789768  0.57966556  0.78505526    -0.64600
C807        C  0.16933062  0.84844454  0.51600839     0.31500
C808        C  0.17023077  0.84982313  0.59544320     0.31500
C809        C  0.15419094  0.87323800  0.53714236    -0.04700
C810        C  0.14457005  0.80061581  0.53233216    -0.05500
C811        C  0.20989216  0.87150555  0.53752911    -0.05400
C812        C  0.15491346  0.87456464  0.57715342    -0.04700
C813        C  0.14510610  0.80160159  0.57233764    -0.05500
C814        C  0.21074533  0.87322275  0.57760869    -0.05400
C815        C  0.13911897  0.89726163  0.58932803    -0.30800
N816        N  0.12729227  0.90736225  0.55827417     0.15700
C817        C  0.13676023  0.89330088  0.52625684    -0.30800
H818        H  0.13128148  0.89701357  0.49715978     0.17700
C819        C  0.12513140  0.75637980  0.58114151    -0.29700
N820        N  0.11238211  0.72799372  0.54805281     0.14500
C821        C  0.12434646  0.75448953  0.51811186    -0.29700
C822        C  0.24961754  0.89436699  0.59020291    -0.30000
N823        N  0.27139255  0.90285431  0.55933224     0.15000
H824        H  0.26134730  0.90242018  0.61956012     0.17600
C825        C  0.24733288  0.88876161  0.52722275    -0.30000
H826        H  0.25633859  0.89049330  0.49833612     0.17600
H827        H  0.12091045  0.74145771  0.48845089     0.17600
H828        H  0.13584582  0.90557085  0.61855086     0.17700
H829        H  0.12162273  0.74505893  0.60953557     0.17600
C830        C  0.16822297  0.84620606  0.76640103     0.31500
C831        C  0.16716465  0.84549754  0.84559473     0.31500
C832        C  0.15630247  0.87466079  0.78811797    -0.04700
C833        C  0.14022371  0.79843834  0.78184111    -0.05500
C834        C  0.20783520  0.86553818  0.78858361    -0.05400
C835        C  0.15556166  0.87386286  0.82792649    -0.04700
C836        C  0.14007795  0.79780831  0.82170760    -0.05500
C837        C  0.20713926  0.86462662  0.82849371    -0.05400
C838        C  0.13928398  0.89554355  0.84117717    -0.30800
N839        N  0.13010873  0.90950838  0.81091183     0.15700
C840        C  0.14123766  0.89797879  0.77863352    -0.30800
H841        H  0.13817407  0.90558830  0.75026871     0.17700
C842        C  0.11799450  0.75165342  0.82880440    -0.29700
N843        N  0.10360405  0.72483300  0.79483523     0.14500
C844        C  0.11681278  0.75288459  0.76604229    -0.29700
C845        C  0.24433729  0.88050414  0.84217123    -0.30000
N846        N  0.26752962  0.89167434  0.81224018     0.15000
H847        H  0.25388513  0.88325800  0.87157919     0.17600
C848        C  0.24592531  0.88377493  0.77973930    -0.30000
H849        H  0.25781219  0.89253035  0.75199201     0.17600
H850        H  0.11102247  0.74091237  0.73584273     0.17600
H851        H  0.13278607  0.89887837  0.87043048     0.17700
H852        H  0.11342699  0.73833764  0.85640855     0.17600
C853        C  0.13165242  0.81257950  0.90770578    -0.11900
C854        C  0.16591006  0.84642509  0.88977006     0.10300
C855        C  0.19732814  0.88458022  0.91381618    -0.11900
C856        C  0.19666029  0.88535814  0.95394351    -0.11900
C857        C  0.16489208  0.84760622  0.97174326     0.10300
C858        C  0.13127544  0.81288999  0.94781217    -0.11900
H859        H  0.10450727  0.78630133  0.89096139     0.14300
H860        H  0.22244914  0.91433050  0.90163452     0.14300
H861        H  0.22116115  0.91592289  0.97100713     0.14300
H862        H  0.10414083  0.78632694  0.95998441     0.14300
C863        C  0.13852389  0.84337887  0.66009040    -0.11900
C864        C  0.16882071  0.84727848  0.63963435     0.10300
C865        C  0.19368409  0.84090422  0.66029207    -0.11900
C866        C  0.19273587  0.83908977  0.70031353    -0.11900
C867        C  0.16728554  0.84424833  0.72174989     0.10300
C868        C  0.13780678  0.84195319  0.70018381    -0.11900
H869        H  0.11444578  0.83999545  0.64514723     0.14300
H870        H  0.21321866  0.83577189  0.64547187     0.14300
H871        H  0.21110871  0.83182415  0.71400060     0.14300
H872        H  0.11344189  0.83799334  0.71408161     0.14300
C873        C  0.07772365  0.67489629  0.78921943    -0.14900
C874        C  0.07558425  0.64798165  0.81527429    -0.30100
H875        H  0.06016262  0.65865364  0.76216327     0.14100
H876        H  0.09525427  0.66327732  0.84098876     0.14700
C877        C  0.30888591  0.91158538  0.81497242    -0.14900
C878        C  0.32617613  0.90670708  0.78510610    -0.30100
H879        H  0.32646421  0.93230167  0.84121765     0.14100
H880        H  0.30827094  0.88467658  0.75943517     0.14700
C881        C  0.09238829  0.93272292  0.78255692    -0.14900
C882        C  0.11056734  0.93135025  0.81340611    -0.30100
H883        H  0.09115411  0.91611928  0.75495979     0.14100
H884        H  0.11084509  0.94729635  0.84105539     0.14700
C885        C  0.09389658  0.67889248  0.54631559    -0.14900
C886        C  0.07209529  0.64933601  0.51530201    -0.30100
H887        H  0.09686801  0.66526983  0.57163552     0.14100
H888        H  0.06581318  0.66145330  0.49102718     0.14700
C889        C  0.31318854  0.92420639  0.56078510    -0.14900
C890        C  0.33012346  0.91901688  0.53060947    -0.30100
H891        H  0.33128866  0.94543790  0.58666035     0.14100
H892        H  0.31196207  0.89658798  0.50523547     0.14700
C893        C  0.08802810  0.92873159  0.53014715    -0.14900
C894        C  0.10806361  0.92947366  0.56042115    -0.30100
H895        H  0.08526660  0.91060395  0.50279213     0.14100
H896        H  0.11019271  0.94759595  0.58763293     0.14700
C897        C  0.98541735  0.47234857  0.92174686    -0.11800
C898        C  0.98345566  0.47490184  0.88855410    -0.13300
C899        C  0.03071400  0.55308461  0.67585664    -0.11800
C900        C  0.03195975  0.55584079  0.64241683    -0.13300
C901        C  0.40689764  0.59791062  0.78329464    -0.14900
C902        C  0.41968742  0.58413094  0.75463627    -0.30100
H903        H  0.41436455  0.59660849  0.81261623     0.14100
H904        H  0.41108724  0.58265808  0.72507688     0.14700
C905        C  0.42506825  0.83757883  0.78082328    -0.14900
C906        C  0.44586680  0.86360214  0.75255082    -0.30100
H907        H  0.42246947  0.85409288  0.80658296     0.14100
H908        H  0.45191902  0.84895371  0.72811854     0.14700
C909        C  0.17969092  0.60792682  0.78800419    -0.14900
C910        C  0.19953997  0.60668282  0.75894467    -0.30100
H911        H  0.19510166  0.62696951  0.81538170     0.14100
H912        H  0.18388302  0.58806330  0.73145625     0.14700
C913        C  0.42446625  0.62218654  0.03327779    -0.14900
C914        C  0.43562494  0.60741859  0.00378409    -0.30100
H915        H  0.43533606  0.61351742  0.56078238     0.14100
H916        H  0.43120270  0.61206186  0.97457794     0.14700
C917        C  0.41231841  0.83522134  0.53156022    -0.14900
C918        C  0.43642901  0.86023685  0.50452348    -0.30100
H919        H  0.40929240  0.85253795  0.55640081     0.14100
H920        H  0.44238193  0.84370607  0.48157552     0.14700
C921        C  0.20156262  0.59004553  0.51363718    -0.14900
C922        C  0.18270680  0.59209961  0.54337372    -0.30100
H923        H  0.18643762  0.58098317  0.98826904     0.14100
H924        H  0.19720988  0.60559944  0.57184799     0.14700
C925        C  0.31433518  0.67795670  0.87962210    -0.11900
C926        C  0.34073583  0.67523013  0.85760525     0.10300
C927        C  0.37252317  0.68169140  0.87861318    -0.11900
C928        C  0.37333137  0.68110865  0.91874798    -0.11900
C929        C  0.34314294  0.67599210  0.94021206     0.10300
C930        C  0.31582461  0.67885856  0.91992243    -0.11900
H931        H  0.29379376  0.68212244  0.86639386     0.12900
H932        H  0.39736702  0.68774695  0.86402393     0.14300
H933        H  0.39899879  0.68733907  0.93277171     0.14300
H934        H  0.29594383  0.68297445  0.93528346     0.14300
C935        C  0.33621473  0.69666077  0.63054384    -0.11900
C936        C  0.33996073  0.66598713  0.60725857     0.10300
C937        C  0.33679552  0.63017503  0.62532315    -0.11900
C938        C  0.33678492  0.62987128  0.66537417    -0.11900
C939        C  0.33856705  0.66453783  0.68912799     0.10300
C940        C  0.33560775  0.69598997  0.67061443    -0.11900
H941        H  0.33285698  0.72068135  0.61794106     0.14300
H942        H  0.33393550  0.60176923  0.60846908     0.14300
H943        H  0.33386229  0.60120887  0.67727214     0.14300
H944        H  0.33274148  0.72027069  0.68726658     0.14300
C945        C  0.83398282  0.18139078  0.06270809     0.31500
C946        C  0.84022049  0.17884934  0.48336274     0.31500
C947        C  0.79370042  0.15112064  0.04006604    -0.04700
C948        C  0.85410999  0.22848496  0.04573895    -0.05500
C949        C  0.85593182  0.16378111  0.04377149    -0.05400
C950        C  0.79922847  0.14530727  0.49925070    -0.04700
C951        C  0.85528651  0.22569501  0.50563605    -0.05500
C952        C  0.86437165  0.16587335  0.50399217    -0.05400
C953        C  0.76068420  0.12080716  0.48470309    -0.30800
N954        N  0.73686903  0.10926057  0.51411348     0.15700
C955        C  0.75558007  0.13234337  0.04913125    -0.30800
H956        H  0.74591929  0.13142945  0.07767664     0.17700
C957        C  0.88399089  0.27033802  0.49710383    -0.29700
N958        N  0.90007541  0.29977368  0.02956749     0.14500
C959        C  0.88327539  0.27425466  0.05961075    -0.29700
C960        C  0.88715314  0.15109361  0.49441866    -0.30000
N961        N  0.90144434  0.14666429  0.52721263     0.15000
H962        H  0.89226155  0.14299882  0.46599993     0.17600
C963        C  0.87742614  0.14989539  0.05709267    -0.30000
H964        H  0.88404533  0.14917845  0.08672689     0.17600
H965        H  0.89425226  0.28741923  0.08911195     0.17600
H966        H  0.75062675  0.11437703  0.45490764     0.17700
H967        H  0.89490329  0.28066109  0.46912366     0.17600
C968        C  0.83906485  0.18143191  0.31232732     0.31500
C969        C  0.83796903  0.17953467  0.23297338     0.31500
C970        C  0.79974912  0.16472743  0.29103990    -0.04700
C971        C  0.86901633  0.22803664  0.29552919    -0.05500
C972        C  0.84741083  0.14904176  0.29081452    -0.05400
C973        C  0.79991826  0.16478919  0.25124309    -0.04700
C974        C  0.86880879  0.22678474  0.25558424    -0.05500
C975        C  0.84711367  0.14851704  0.25045997    -0.05400
C976        C  0.76302332  0.14901718  0.23738340    -0.30800
N977        N  0.74003231  0.13880015  0.26726571     0.15700
C978        C  0.76150293  0.14648389  0.29980931    -0.30800
H979        H  0.74910735  0.13643715  0.32718962     0.17700
C980        C  0.89576209  0.27166912  0.24662261    -0.29700
N981        N  0.91123925  0.30032089  0.27962244     0.14500
C982        C  0.89516970  0.27420537  0.30961507    -0.29700
C983        C  0.87031517  0.13528450  0.23866613    -0.30000
N984        N  0.88264208  0.12519758  0.26916862     0.15000
H985        H  0.88013617  0.13624014  0.21016578     0.17600
C986        C  0.86911375  0.13359583  0.30105126    -0.30000
H987        H  0.87582957  0.13035369  0.32975007     0.17600
H988        H  0.90050593  0.28808345  0.33931585     0.17600
H989        H  0.75334680  0.14448965  0.20767138     0.17700
H990        H  0.90172502  0.28310057  0.21822608     0.17600
C991        C  0.62755184  0.07231939  0.03431848     0.77900
Tb992      Tb  0.96075795  0.02173320  0.02833547     1.80700
O993        O  0.60505210  0.05887981  0.06158225    -0.50100
O994        O  0.57866982  0.47400427  0.04707533    -0.57500
C995        C  0.54322808  0.09383473  0.00266149     0.93800
O996        O  0.94213196  0.06963245  0.04519183    -0.57100
Tb997      Tb  0.54534545  0.01127434  0.02337655     1.78100
O998        O  0.90068564  0.45488289  0.99911028    -0.57600
O999        O  0.99691550  0.44263640  0.03763767    -0.76400
O1000       O  0.54609568  0.06341659  0.98626205    -0.75700
O1001       O  0.54147905  0.03419922  0.47032545    -0.60900
C1002       C  0.96573764  0.42993394  0.05413885     0.93300
O1003       O  0.98605518  0.03399022  0.09042014    -0.72900
C1004       C  0.87863418  0.96178748  0.02928496     0.76800
C1005       C  0.58389919  0.46119499  0.01478662     0.77800
O1006       O  0.60929327  0.05868506  0.00174543    -0.58100
O1007       O  0.57701778  0.47659069  0.98732155    -0.50100
O1008       O  0.98155566  0.01068131  0.47242519    -0.76200
O1009       O  0.54315098  0.05719146  0.07149075    -0.60100
C1010       C  0.51571883  0.04046243  0.09393932     0.91600
C1011       C  0.50914378  0.02079091  0.45382486     0.92800
C1012       C  0.94663013  0.08330505  0.51205620     0.77100
O1013       O  0.90095372  0.98808635  0.05831713    -0.49500
O1014       O  0.95049935  0.54902803  0.48545676    -0.50600
O1015       O  0.95869338  0.45847186  0.06578451    -0.63500
O1016       O  0.51446279  0.08240258  0.02289357    -0.64600
C1017       C  0.63540753  0.08782947  0.29073255     0.77900
Tb1018     Tb  0.96215430  0.01979295  0.28405037     1.80700
O1019       O  0.61495676  0.07443130  0.31949995    -0.50100
O1020       O  0.59002327  0.48577661  0.31259874    -0.57500
C1021       C  0.53314874  0.09272366  0.27578642     0.93800
O1022       O  0.95157221  0.06879377  0.32049452    -0.57100
Tb1023     Tb  0.55424869  0.01731160  0.28504692     1.78100
O1024       O  0.89339680  0.44680583  0.26863913    -0.57600
O1025       O  0.00520125  0.45436217  0.24442752    -0.76400
O1026       O  0.52660495  0.05379832  0.27652010    -0.75700
O1027       O  0.54116894  0.02005348  0.22152590    -0.60900
C1028       C  0.97145468  0.42516137  0.25673032     0.93300
O1029       O  0.98155915  0.01222948  0.34314168    -0.72900
C1030       C  0.87986285  0.95830020  0.27625160     0.76800
C1031       C  0.58541558  0.46208491  0.28177665     0.77800
O1032       O  0.61513807  0.06962448  0.25933221    -0.58100
O1033       O  0.57220432  0.47006483  0.25364785    -0.50100
O1034       O  0.98699867  0.02707598  0.22434260    -0.76200
O1035       O  0.53561129  0.03737345  0.33958873    -0.60100
C1036       C  0.50663771  0.03670327  0.35034449     0.91600
C1037       C  0.51561352  0.01919725  0.20132404     0.92800
C1038       C  0.94033114  0.07921954  0.29244172     0.77100
O1039       O  0.89937901  0.97549758  0.30818046    -0.49500
O1040       O  0.93656074  0.53306414  0.23711645    -0.50600
O1041       O  0.95229246  0.43758048  0.27358173    -0.63500
O1042       O  0.50219820  0.08920207  0.27077416    -0.64600
C1043       C  0.67455380  0.34339379  0.99934277     0.31500
C1044       C  0.67277765  0.34550062  0.07850211     0.31500
C1045       C  0.65614114  0.36558118  0.01852046    -0.04700
C1046       C  0.65159134  0.29581526  0.01606318    -0.05500
C1047       C  0.71496016  0.36966656  0.02249485    -0.05400
C1048       C  0.65585609  0.36737701  0.05848312    -0.04700
C1049       C  0.65061359  0.29732126  0.05594279    -0.05500
C1050       C  0.71397512  0.37141639  0.06248754    -0.05400
C1051       C  0.64132807  0.39167981  0.06945844    -0.30800
N1052       N  0.63059800  0.40202846  0.03791340     0.15700
C1053       C  0.63980919  0.38669329  0.00644634    -0.30800
H1054       H  0.63582051  0.39128130  0.97716686     0.17700
C1055       C  0.62626145  0.25226144  0.06516674    -0.29700
N1056       N  0.61285645  0.22328619  0.03243317     0.14500
C1057       C  0.62834626  0.24922335  0.00226063    -0.29700
C1058       C  0.75206936  0.39341961  0.07745979    -0.30000
N1059       N  0.77575089  0.40304042  0.04818807     0.15000
H1060       H  0.76184320  0.40068989  0.10743503     0.17600
C1061       C  0.75339966  0.38819032  0.01465820    -0.30000
H1062       H  0.76416570  0.38967906  0.98664917     0.17600
H1063       H  0.62152982  0.23516560  0.97256614     0.17600
H1064       H  0.63971744  0.40293151  0.09828780     0.17700
H1065       H  0.61756207  0.24126315  0.09350778     0.17600
C1066       C  0.67263971  0.34450029  0.24871229     0.31500
C1067       C  0.67540703  0.34062812  0.32727769     0.31500
C1068       C  0.65556540  0.36555323  0.27280412    -0.04700
C1069       C  0.65104724  0.29600499  0.26266536    -0.05500
C1070       C  0.71395455  0.37031822  0.26895911    -0.05400
C1071       C  0.65673590  0.36316564  0.31235091    -0.04700
C1072       C  0.65217807  0.29330264  0.30216171    -0.05500
C1073       C  0.71570795  0.36768475  0.30856113    -0.05400
C1074       C  0.64145802  0.38487722  0.32874938    -0.30800
N1075       N  0.63121605  0.40043760  0.30062527     0.15700
C1076       C  0.64081282  0.39011486  0.26669059    -0.30800
H1077       H  0.63929828  0.40223500  0.24002352     0.17700
C1078       C  0.62751395  0.24619931  0.30728495    -0.29700
N1079       N  0.61162549  0.22143974  0.27238086     0.14500
C1080       C  0.62560974  0.25156111  0.24522884    -0.29700
C1081       C  0.75301907  0.38003240  0.31777614    -0.30000
N1082       N  0.77388201  0.39272878  0.28591184     0.15000
H1083       H  0.76321302  0.37678114  0.34476625     0.17600
C1084       C  0.75046187  0.38728398  0.25636346    -0.30000
H1085       H  0.75919041  0.39317537  0.22728413     0.17600
H1086       H  0.61561792  0.24191972  0.21521986     0.17600
H1087       H  0.63852910  0.38961965  0.35896991     0.17700
H1088       H  0.61902390  0.23118695  0.33430702     0.17600
C1089       C  0.64108242  0.30918681  0.39003688    -0.11900
C1090       C  0.67588601  0.34032181  0.37154782     0.10300
C1091       C  0.70941012  0.37557945  0.39543628    -0.11900
C1092       C  0.70942015  0.37634593  0.43560364    -0.11900
C1093       C  0.67620897  0.34143039  0.45402068     0.10300
C1094       C  0.64119222  0.30992641  0.43035644    -0.11900
H1095       H  0.61341958  0.28456259  0.37331615     0.14300
H1096       H  0.73542212  0.40424727  0.38339905     0.14300
H1097       H  0.73514405  0.40594384  0.45203754     0.14300
H1098       H  0.61349339  0.28598024  0.44297960     0.14300
C1099       C  0.64362781  0.34536261  0.14343646    -0.11900
C1100       C  0.67093985  0.34340105  0.12246973     0.10300
C1101       C  0.69313955  0.33287473  0.14262468    -0.11900
C1102       C  0.69261409  0.33196042  0.18260400    -0.11900
C1103       C  0.67080792  0.34290798  0.20436630     0.10300
C1104       C  0.64385193  0.34565274  0.18351603    -0.11900
H1105       H  0.62028197  0.34382686  0.12909738     0.14300
H1106       H  0.71073820  0.32478704  0.12739032     0.14300
H1107       H  0.70928807  0.32232659  0.19645247     0.14300
H1108       H  0.62098318  0.34489242  0.19748263     0.14300
C1109       C  0.57686119  0.17424052  0.26536121    -0.14900
C1110       C  0.57219487  0.13844516  0.28097696    -0.30100
H1111       H  0.55338156  0.16760774  0.24611729     0.14100
H1112       H  0.59617526  0.14317184  0.29778500     0.14700
C1113       C  0.81311207  0.40661037  0.28099869    -0.14900
C1114       C  0.84065675  0.42419605  0.30997592    -0.30100
H1115       H  0.82186192  0.40766478  0.25183156     0.14100
H1116       H  0.83346562  0.42619554  0.33927089     0.14700
C1117       C  0.59651029  0.43024270  0.27790048    -0.14900
C1118       C  0.61541486  0.42636066  0.30655663    -0.30100
H1119       H  0.59114647  0.41183485  0.24989775     0.14100
H1120       H  0.61950386  0.44367719  0.33484745     0.14700
C1121       C  0.58249475  0.17401822  0.03117115    -0.14900
C1122       C  0.57535591  0.14371601  0.00138039    -0.30100
H1123       H  0.56519966  0.16095246  0.05611641     0.14100
H1124       H  0.59422417  0.15515651  0.97753346     0.14700
C1125       C  0.81768288  0.42613781  0.05292258    -0.14900
C1126       C  0.83812650  0.42480759  0.02447413    -0.30100
H1127       H  0.83313464  0.44578996  0.08022000     0.14100
H1128       H  0.82296866  0.40412553  0.99752095     0.14700
C1129       C  0.59878221  0.43326547  0.00979979    -0.14900
C1130       C  0.61344997  0.42651686  0.04026146    -0.30100
H1131       H  0.59952869  0.42051667  0.98110195     0.14100
H1132       H  0.61237532  0.44011764  0.06855223     0.14700
C1133       C  0.50952756  0.04172347  0.42185394    -0.11800
C1134       C  0.50741114  0.04689093  0.38944467    -0.13300
C1135       C  0.52374172  0.02950226  0.16356953    -0.11800
C1136       C  0.52427739  0.03886493  0.13191540    -0.13300
C1137       C  0.90633525  0.10871026  0.26626411    -0.14900
C1138       C  0.92316195  0.10472801  0.29678881    -0.30100
H1139       H  0.90911445  0.09705577  0.23787960     0.14100
H1140       H  0.92141659  0.11653056  0.32545955     0.14700
C1141       C  0.93387056  0.35015144  0.28251807    -0.14900
C1142       C  0.95424315  0.37546310  0.25362137    -0.30100
H1143       H  0.93301377  0.36760247  0.30871904     0.14100
H1144       H  0.95861837  0.35999951  0.22846942     0.14700
C1145       C  0.67879423  0.11752234  0.29373836    -0.14900
C1146       C  0.69883537  0.11914635  0.26358761    -0.30100
H1147       H  0.69379590  0.13340171  0.32184502     0.14100
H1148       H  0.68329143  0.10343364  0.23558139     0.14700
C1149       C  0.92540048  0.13106736  0.53170561    -0.14900
C1150       C  0.93072209  0.10873947  0.50314847    -0.30100
H1151       H  0.91267704  0.10962061  0.06099766     0.14100
H1152       H  0.91926478  0.10437262  0.47413810     0.14700
C1153       C  0.93267233  0.34826388  0.03142402    -0.14900
C1154       C  0.93570033  0.37986233  0.05733685    -0.30100
H1155       H  0.95281558  0.35992475  0.00852288     0.14100
H1156       H  0.91337508  0.36887311  0.07793969     0.14700
C1157       C  0.69151348  0.09830568  0.01129455    -0.14900
C1158       C  0.67058538  0.09775250  0.04010689    -0.30100
H1159       H  0.68089772  0.07129136  0.48041669     0.14100
H1160       H  0.68424694  0.11243833  0.06880832     0.14700
C1161       C  0.81431738  0.18638845  0.37914125    -0.11900
C1162       C  0.84125555  0.18473246  0.35710044     0.10300
C1163       C  0.87275214  0.19065857  0.37816189    -0.11900
C1164       C  0.87273392  0.18876617  0.41822503    -0.11900
C1165       C  0.84141059  0.18144069  0.43918297     0.10300
C1166       C  0.81431083  0.18461915  0.41907459    -0.11900
H1167       H  0.79456715  0.19203960  0.36635574     0.12900
H1168       H  0.89800569  0.19763918  0.36381626     0.14300
H1169       H  0.89842056  0.19542923  0.43262149     0.14300
H1170       H  0.79355463  0.18717515  0.43439263     0.14300
C1171       C  0.83547994  0.21490509  0.13158382    -0.11900
C1172       C  0.83213084  0.17983664  0.10683563     0.10300
C1173       C  0.82493772  0.14120881  0.12387008    -0.11900
C1174       C  0.82727555  0.14112468  0.16389484    -0.11900
C1175       C  0.83521832  0.17885451  0.18873906     0.10300
C1176       C  0.83623983  0.21390967  0.17164526    -0.11900
H1177       H  0.83655540  0.24270118  0.12016102     0.14300
H1178       H  0.81803292  0.11097188  0.10612544     0.14300
H1179       H  0.82172999  0.11068168  0.17518142     0.14300
H1180       H  0.83773234  0.24092817  0.18933617     0.14300
C1181       C  0.83797562  0.18027198  0.56245604     0.31500
C1182       C  0.83524102  0.17843926  0.98336476     0.31500
C1183       C  0.79821958  0.14646186  0.53917940    -0.04700
C1184       C  0.85454548  0.22699179  0.54593694    -0.05500
C1185       C  0.86365070  0.16777385  0.54394358    -0.05400
C1186       C  0.79413010  0.14919906  0.00007259    -0.04700
C1187       C  0.85459616  0.22668921  0.00550796    -0.05500
C1188       C  0.85610847  0.16100698  0.00376477    -0.05400
C1189       C  0.75570627  0.12718676  0.98619471    -0.30800
N1190       N  0.73270966  0.11792821  0.01603483     0.15700
C1191       C  0.75945028  0.12479925  0.54753811    -0.30800
H1192       H  0.74910242  0.12299665  0.57587152     0.17700
C1193       C  0.88382963  0.27108661  0.99671421    -0.29700
N1194       N  0.90008209  0.29887864  0.52990491     0.14500
C1195       C  0.88365803  0.27299565  0.55983056    -0.29700
C1196       C  0.87614263  0.14242815  0.99416599    -0.30000
N1197       N  0.88934249  0.13664519  0.02702105     0.15000
H1198       H  0.87984736  0.13243981  0.96576904     0.17600
C1199       C  0.88753097  0.15711253  0.55735027    -0.30000
H1200       H  0.89396467  0.15614088  0.58698310     0.17600
H1201       H  0.89517851  0.28588011  0.58924625     0.17600
H1202       H  0.74518804  0.12037126  0.95651904     0.17700
H1203       H  0.89433921  0.28128344  0.96860213     0.17600
C1204       C  0.83353312  0.17544925  0.81169897     0.31500
C1205       C  0.83663779  0.17411358  0.73257841     0.31500
C1206       C  0.79625709  0.16211541  0.78869481    -0.04700
C1207       C  0.86622664  0.22142908  0.79574001    -0.05500
C1208       C  0.83952220  0.14041132  0.79145051    -0.05400
C1209       C  0.79831255  0.16198583  0.74896936    -0.04700
C1210       C  0.86806950  0.22071362  0.75592469    -0.05500
C1211       C  0.84232517  0.14054270  0.75132638    -0.05400
C1212       C  0.76215128  0.14703419  0.73333005    -0.30800
N1213       N  0.73791399  0.13760614  0.76200839     0.15700
C1214       C  0.75797800  0.14538080  0.79569714    -0.30800
H1215       H  0.74455626  0.13584528  0.82269833     0.17700
C1216       C  0.89397594  0.26627604  0.74769855    -0.29700
N1217       N  0.90683928  0.29448601  0.78093369     0.14500
C1218       C  0.88986988  0.26759528  0.81029031    -0.29700
C1219       C  0.86513608  0.12533044  0.74272170    -0.30000
N1220       N  0.87267026  0.11227035  0.77487220     0.15000
H1221       H  0.87820468  0.12766719  0.71585991     0.17600
C1222       C  0.85689033  0.12092031  0.80427365    -0.30000
H1223       H  0.86064736  0.11643206  0.83362976     0.17600
H1224       H  0.89214130  0.28080319  0.83969093     0.17600
H1225       H  0.75356942  0.14164865  0.70315463     0.17700
H1226       H  0.90015675  0.27831285  0.71950335     0.17600
C1227       C  0.63076394  0.06053729  0.53105522     0.77900
Tb1228     Tb  0.96687641  0.02597052  0.53209412     1.80700
O1229       O  0.60835970  0.04762283  0.55839758    -0.50100
O1230       O  0.57669622  0.46392814  0.55011354    -0.57500
C1231       C  0.54989017  0.09150766  0.54113518     0.93800
O1232       O  0.95839006  0.08409061  0.54536594    -0.57100
Tb1233     Tb  0.54861420  0.00078735  0.52056336     1.78100
O1234       O  0.90324648  0.45221193  0.49849447    -0.57600
O1235       O  0.99734578  0.44142051  0.53473346    -0.76400
O1236       O  0.55914401  0.06671268  0.55334359    -0.75700
O1237       O  0.49811537  0.96316396  0.97366793    -0.60900
C1238       C  0.96713753  0.42930533  0.55284707     0.93300
O1239       O  0.99647327  0.04198737  0.59261357    -0.72900
C1240       C  0.88836428  0.97029175  0.55215334     0.76800
C1241       C  0.58286717  0.45270574  0.51758127     0.77800
O1242       O  0.61247611  0.04640708  0.49840237    -0.58100
O1243       O  0.57699235  0.46936096  0.49034389    -0.50100
O1244       O  0.97777704  0.01150089  0.96885529    -0.76200
O1245       O  0.50962002  0.97373729  0.57247588    -0.60100
C1246       C  0.49906692  0.99496892  0.59227915     0.91600
C1247       C  0.47852213  0.97054813  0.95248980     0.92800
C1248       C  0.94081017  0.08026805  0.01208545     0.77100
O1249       O  0.89877492  0.96994137  0.51866815    -0.49500
O1250       O  0.94938170  0.54923347  0.98521893    -0.50600
O1251       O  0.96083197  0.45832653  0.56505069    -0.63500
O1252       O  0.51696680  0.07434054  0.52307752    -0.64600
C1253       C  0.63137894  0.08224061  0.78139636     0.77900
Tb1254     Tb  0.96142382  0.01528463  0.77491229     1.80700
O1255       O  0.61089802  0.06839241  0.81010650    -0.50100
O1256       O  0.58851670  0.48013592  0.80549495    -0.57500
C1257       C  0.54099552  0.09019157  0.79732155     0.93800
O1258       O  0.94164169  0.06240357  0.79321479    -0.57100
Tb1259     Tb  0.55018618  0.01074702  0.77633689     1.78100
O1260       O  0.89841217  0.44403193  0.74259700    -0.57600
O1261       O  0.00129907  0.44945576  0.74637963    -0.76400
O1262       O  0.54753160  0.06508251  0.81371081    -0.75700
O1263       O  0.53520726  0.03727675  0.72613897    -0.60900
C1264       C  0.96860926  0.42096211  0.76066785     0.93300
O1265       O  0.98091615  0.01430213  0.83663976    -0.72900
C1266       C  0.87984586  0.94919005  0.77573696     0.76800
C1267       C  0.59457813  0.46744194  0.77356789     0.77800
O1268       O  0.61119584  0.06312915  0.74988875    -0.58100
O1269       O  0.58465104  0.47891425  0.74531542    -0.50100
O1270       O  0.99154863  0.02227123  0.71827488    -0.76200
O1271       O  0.51040283  0.97146706  0.82576074    -0.60100
C1272       C  0.48766802  0.97669219  0.84455793     0.91600
C1273       C  0.50416836  0.01097929  0.70438493     0.92800
C1274       C  0.93283416  0.06601232  0.75989185     0.77100
O1275       O  0.90156808  0.97563590  0.80501798    -0.49500
O1276       O  0.94260954  0.54132727  0.73517639    -0.50600
O1277       O  0.95120883  0.43488543  0.77880778    -0.63500
O1278       O  0.50956664  0.07205651  0.77645489    -0.64600
C1279       C  0.67669358  0.34082350  0.49845323     0.31500
C1280       C  0.67486776  0.34019592  0.57782630     0.31500
C1281       C  0.66001394  0.36415762  0.51909608    -0.04700
C1282       C  0.65213713  0.29270703  0.51405523    -0.05500
C1283       C  0.71685122  0.36454012  0.52139705    -0.05400
C1284       C  0.65948719  0.36441115  0.55906413    -0.04700
C1285       C  0.65129878  0.29253717  0.55397465    -0.05500
C1286       C  0.71591766  0.36527901  0.56144269    -0.05400
C1287       C  0.64384244  0.38709890  0.57107643    -0.30800
N1288       N  0.63321165  0.39833268  0.54002160     0.15700
C1289       C  0.64328125  0.38498093  0.50804982    -0.30800
H1290       H  0.63877828  0.38976725  0.47899928     0.17700
C1291       C  0.62593508  0.24681653  0.56171223    -0.29700
N1292       N  0.61151144  0.21951034  0.52789997     0.14500
C1293       C  0.62731051  0.24689116  0.49880513    -0.29700
C1294       C  0.75424687  0.38844253  0.57615477    -0.30000
N1295       N  0.77784572  0.39892965  0.54673949     0.15000
H1296       H  0.76450096  0.39682690  0.60603149     0.17600
C1297       C  0.75542247  0.38409094  0.51331887    -0.30000
H1298       H  0.76650494  0.38693397  0.48529652     0.17600
H1299       H  0.62061888  0.23395877  0.46882781     0.17600
H1300       H  0.64027536  0.39524741  0.60022116     0.17700
H1301       H  0.61727995  0.23450146  0.58968371     0.17600
C1302       C  0.67354947  0.33815199  0.74889667     0.31500
C1303       C  0.67373256  0.33824535  0.82824802     0.31500
C1304       C  0.66287922  0.36774417  0.77092591    -0.04700
C1305       C  0.64516115  0.29056951  0.76474089    -0.05500
C1306       C  0.71323402  0.35696219  0.77044588    -0.05400
C1307       C  0.66287736  0.36735885  0.81079565    -0.04700
C1308       C  0.64566237  0.29052370  0.80467888    -0.05500
C1309       C  0.71297504  0.35611531  0.81037192    -0.05400
C1310       C  0.65040591  0.39291149  0.82481045    -0.30800
N1311       N  0.64269701  0.40887940  0.79503275     0.15700
C1312       C  0.65087567  0.39446426  0.76211987    -0.30800
H1313       H  0.64798157  0.40239179  0.73382987     0.17700
C1314       C  0.62068081  0.24471657  0.81231877    -0.29700
N1315       N  0.60400025  0.21737190  0.77871476     0.14500
C1316       C  0.61859336  0.24488202  0.74948159    -0.29700
C1317       C  0.75024917  0.37259694  0.82366091    -0.30000
N1318       N  0.77326553  0.38480497  0.79366510     0.15000
H1319       H  0.76030178  0.37568401  0.85292330     0.17600
C1320       C  0.75146891  0.37653725  0.76125993    -0.30000
H1321       H  0.76323877  0.38619177  0.73354520     0.17600
H1322       H  0.61085112  0.23243828  0.71940421     0.17600
H1323       H  0.64596509  0.39822610  0.85444304     0.17700
H1324       H  0.61499208  0.23194221  0.84020414     0.17600
C1325       C  0.63907398  0.30850518  0.89146731    -0.11900
C1326       C  0.67355743  0.33996695  0.87266765     0.10300
C1327       C  0.70639615  0.37711450  0.89618532    -0.11900
C1328       C  0.70675572  0.37848214  0.93639236    -0.11900
C1329       C  0.67423816  0.34279650  0.95503316     0.10300
C1330       C  0.63945624  0.30976675  0.93171582    -0.11900
H1331       H  0.61120637  0.28357903  0.87528668     0.14300
H1332       H  0.73170284  0.40615992  0.88362802     0.14300
H1333       H  0.73212789  0.40881987  0.95266851     0.14300
H1334       H  0.61207828  0.28520462  0.94459158     0.14300
C1335       C  0.64326081  0.33472471  0.64266957    -0.11900
C1336       C  0.67289641  0.33727598  0.62199738     0.10300
C1337       C  0.69770249  0.33085893  0.64270113    -0.11900
C1338       C  0.69732069  0.33003154  0.68278927    -0.11900
C1339       C  0.67235882  0.33602268  0.70428258     0.10300
C1340       C  0.64315879  0.33442184  0.68290131    -0.11900
H1341       H  0.61922328  0.33152827  0.62787768     0.14300
H1342       H  0.71703070  0.32534759  0.62786445     0.14300
H1343       H  0.71585656  0.32302822  0.69654912     0.14300
H1344       H  0.61959171  0.33207858  0.69714147     0.14300
C1345       C  0.57446184  0.16763884  0.77455626    -0.14900
C1346       C  0.57110160  0.14098067  0.80149040    -0.30100
H1347       H  0.55521531  0.15141387  0.74848156     0.14100
H1348       H  0.59240092  0.15630341  0.82595196     0.14700
C1349       C  0.81479481  0.40702988  0.79731296    -0.14900
C1350       C  0.83472250  0.40763054  0.76763261    -0.30100
H1351       H  0.83040826  0.42478809  0.82500875     0.14100
H1352       H  0.81949143  0.38892025  0.74009358     0.14700
C1353       C  0.61218700  0.44245754  0.76902135    -0.14900
C1354       C  0.62627526  0.43425826  0.79911722    -0.30100
H1355       H  0.61365987  0.43102826  0.74011818     0.14100
H1356       H  0.62412327  0.44578721  0.82782336     0.14700
C1357       C  0.58182781  0.17001623  0.52267510    -0.14900
C1358       C  0.57882828  0.14227817  0.54808169    -0.30100
H1359       H  0.56302457  0.15474340  0.49628366     0.14100
H1360       H  0.60006064  0.15688787  0.57258138     0.14700
C1361       C  0.81992085  0.42351761  0.55128355    -0.14900
C1362       C  0.84040420  0.42171822  0.52319661    -0.30100
H1363       H  0.83534986  0.44434659  0.57822501     0.14100
H1364       H  0.82525155  0.39972972  0.49670410     0.14700
C1365       C  0.59859230  0.42598122  0.51236538    -0.14900
C1366       C  0.61418579  0.42047389  0.54281191    -0.30100
H1367       H  0.59988910  0.41400859  0.48358487     0.14100
H1368       H  0.61262436  0.43336031  0.57120735     0.14700
C1369       C  0.47364052  0.95596467  0.91346559    -0.11800
C1370       C  0.47742620  0.95888847  0.88021802    -0.13300
C1371       C  0.50766620  0.00675849  0.66534555    -0.11800
C1372       C  0.50524724  0.00000742  0.63175496    -0.13300
C1373       C  0.89685158  0.09691872  0.78049070    -0.14900
C1374       C  0.91258001  0.08708348  0.75204586    -0.30100
H1375       H  0.90119328  0.09129788  0.80947197     0.14100
H1376       H  0.90788510  0.09082439  0.72261153     0.14700
C1377       C  0.92771591  0.34415272  0.78437526    -0.14900
C1378       C  0.95067463  0.37091189  0.75723122    -0.30100
H1379       H  0.92438581  0.36030715  0.80988520     0.14100
H1380       H  0.95705027  0.35626906  0.73308385     0.14700
C1381       C  0.67482694  0.11395716  0.78515645    -0.14900
C1382       C  0.69649984  0.11670939  0.75622034    -0.30100
H1383       H  0.68881552  0.13054664  0.81349044     0.14100
H1384       H  0.68207592  0.10028539  0.72790344     0.14700
C1385       C  0.90998768  0.11692613  0.03212992    -0.14900
C1386       C  0.92492731  0.10595139  0.00375619    -0.30100
H1387       H  0.93627044  0.13345845  0.56062254     0.14100
H1388       H  0.92319590  0.11289585  0.97458064     0.14700
C1389       C  0.93307991  0.34717733  0.53135319    -0.14900
C1390       C  0.93727210  0.37943691  0.55731855    -0.30100
H1391       H  0.95237673  0.35829095  0.50775414     0.14100
H1392       H  0.91586306  0.36914718  0.57881196     0.14700
C1393       C  0.69527686  0.08749182  0.50879271    -0.14900
C1394       C  0.67381094  0.08666713  0.53710524    -0.30100
H1395       H  0.67679975  0.08294096  0.98291689     0.14100
H1396       H  0.68724793  0.10237204  0.56573221     0.14700
C1397       C  0.80924840  0.18362772  0.87802181    -0.11900
C1398       C  0.83498044  0.17912638  0.85647858     0.10300
C1399       C  0.86562028  0.18358272  0.87793731    -0.11900
C1400       C  0.86587068  0.18326014  0.91810490    -0.11900
C1401       C  0.83603267  0.17977212  0.93900551     0.10300
C1402       C  0.81005358  0.18441594  0.91829153    -0.11900
H1403       H  0.78983173  0.18932099  0.86444034     0.12900
H1404       H  0.89010884  0.18816690  0.86373323     0.14300
H1405       H  0.89076172  0.18814685  0.93263534     0.14300
H1406       H  0.79065300  0.18970068  0.93325370     0.14300
C1407       C  0.83657752  0.21113153  0.63135176    -0.11900
C1408       C  0.83537801  0.17765846  0.60645938     0.10300
C1409       C  0.82976615  0.13964715  0.62315615    -0.11900
C1410       C  0.83070009  0.13842814  0.66319624    -0.11900
C1411       C  0.83576573  0.17437185  0.68830244     0.10300
C1412       C  0.83613342  0.20905215  0.67129581    -0.11900
H1413       H  0.83687640  0.23850063  0.62011305     0.14300
H1414       H  0.82522360  0.11086002  0.60511642     0.14300
H1415       H  0.82624417  0.10842910  0.67416458     0.14300
H1416       H  0.83606428  0.23491179  0.68905238     0.14300
C1417       C  0.85330398  0.69107381  0.06221694     0.31500
C1418       C  0.85689098  0.68918111  0.48359041     0.31500
C1419       C  0.81236717  0.66177481  0.04047151    -0.04700
C1420       C  0.87446091  0.73775337  0.04417975    -0.05500
C1421       C  0.87350105  0.67122075  0.04275104    -0.05400
C1422       C  0.81568799  0.65748812  0.49990241    -0.04700
C1423       C  0.87379787  0.73634534  0.50634275    -0.05500
C1424       C  0.87968628  0.67372218  0.50368896    -0.05400
C1425       C  0.77692020  0.63448570  0.48620352    -0.30800
N1426       N  0.75360108  0.62294375  0.51619343     0.15700
C1427       C  0.77453609  0.64394398  0.05015506    -0.30800
H1428       H  0.76549536  0.64400769  0.07884431     0.17700
C1429       C  0.88971982  0.78042867  0.49683880    -0.29700
N1430       N  0.90623133  0.80883731  0.02501527     0.14500
C1431       C  0.89593701  0.78471127  0.05635560    -0.29700
C1432       C  0.89969681  0.65508061  0.49374536    -0.30000
N1433       N  0.91296661  0.64875616  0.52635403     0.15000
H1434       H  0.90320109  0.64532033  0.46515817     0.17600
C1435       C  0.89551127  0.65771646  0.05559572    -0.30000
H1436       H  0.90364796  0.65855623  0.08509577     0.17600
H1437       H  0.90315738  0.80034256  0.08557829     0.17600
H1438       H  0.76648018  0.62884170  0.45662684     0.17700
H1439       H  0.89348573  0.79123364  0.46822527     0.17600
C1440       C  0.85718639  0.69484803  0.31302395     0.31500
C1441       C  0.85775081  0.69153784  0.23346581     0.31500
C1442       C  0.81859134  0.67832944  0.29094438    -0.04700
C1443       C  0.88783604  0.74096919  0.29612873    -0.05500
C1444       C  0.86484969  0.66173067  0.29275842    -0.05400
C1445       C  0.81921081  0.67721782  0.25101289    -0.04700
C1446       C  0.88840571  0.73939498  0.25604795    -0.05500
C1447       C  0.86628317  0.66049960  0.25271147    -0.05400
C1448       C  0.78191559  0.65960092  0.23666747    -0.30800
N1449       N  0.75872683  0.64990473  0.26637894     0.15700
C1450       C  0.78033973  0.65965894  0.29937103    -0.30800
H1451       H  0.76812514  0.65061291  0.32692462     0.17700
C1452       C  0.91088965  0.78489117  0.24708824    -0.29700
N1453       N  0.92254606  0.81353067  0.27993446     0.14500
C1454       C  0.90840149  0.78715915  0.30984772    -0.29700
C1455       C  0.88204808  0.63675648  0.24284928    -0.30000
N1456       N  0.88753096  0.62182489  0.27505485     0.15000
H1457       H  0.89144069  0.63345625  0.21511737     0.17600
C1458       C  0.87655294  0.63627833  0.30515860    -0.30000
H1459       H  0.87898970  0.63039658  0.33443292     0.17600
H1460       H  0.90996476  0.80031813  0.33908545     0.17600
H1461       H  0.77205531  0.65321850  0.20676856     0.17700
H1462       H  0.91526553  0.79617160  0.21868674     0.17600
C1463       C  0.64603426  0.58316655  0.03633811     0.77900
Tb1464     Tb  0.96404605  0.51306763  0.02789703     1.80700
O1465       O  0.62345674  0.56792330  0.06348416    -0.50100
O1466       O  0.56026909  0.96392015  0.04704439    -0.57500
C1467       C  0.56189565  0.60590927  0.00759561     0.93800
O1468       O  0.95540176  0.57083122  0.04407729    -0.57100
Tb1469     Tb  0.56373133  0.52215017  0.02513170     1.78100
O1470       O  0.89707105  0.96274283  0.00098001    -0.57600
O1471       O  0.00067677  0.96933603  0.06761114    -0.76400
O1472       O  0.56595412  0.57687805  0.99033370    -0.75700
O1473       O  0.55753129  0.55299404  0.48424222    -0.60900
C1474       C  0.96736316  0.93895865  0.05025817     0.93300
O1475       O  0.00469015  0.55350458  0.08376636    -0.72900
C1476       C  0.88155742  0.45321684  0.02708561     0.76800
C1477       C  0.56642691  0.95128371  0.01518905     0.77800
O1478       O  0.62781579  0.57118979  0.00387935    -0.58100
O1479       O  0.55954667  0.96587670  0.98706077    -0.50100
O1480       O  0.96801260  0.46499287  0.48040639    -0.76200
O1481       O  0.56132990  0.56469322  0.07651382    -0.60100
C1482       C  0.53255997  0.55099831  0.09700996     0.91600
C1483       C  0.52630297  0.53787292  0.46449757     0.92800
C1484       C  0.94870555  0.57416364  0.51100446     0.77100
O1485       O  0.90333729  0.47975770  0.05624601    -0.49500
O1486       O  0.94701943  0.05587059  0.48789345    -0.50600
O1487       O  0.95091327  0.95028906  0.02851851    -0.63500
O1488       O  0.53277632  0.59268587  0.02780170    -0.64600
C1489       C  0.65422470  0.59935046  0.28997006     0.77900
Tb1490     Tb  0.96069173  0.50800238  0.28175782     1.80700
O1491       O  0.63430226  0.58771979  0.31911450    -0.50100
O1492       O  0.57569112  0.97785378  0.31293318    -0.57500
C1493       C  0.54929052  0.60417095  0.28387430     0.93800
O1494       O  0.94576727  0.56043099  0.29471293    -0.57100
Tb1495     Tb  0.57286178  0.53014062  0.28607910     1.78100
O1496       O  0.90118186  0.96863529  0.24813592    -0.57600
O1497       O  0.00407551  0.96843286  0.24357874    -0.76400
O1498       O  0.54334046  0.56542320  0.28325431    -0.75700
O1499       O  0.55947050  0.54052637  0.22528751    -0.60900
C1500       C  0.97250167  0.93805359  0.25849216     0.93300
O1501       O  0.98649555  0.51129055  0.34128882    -0.72900
C1502       C  0.88245611  0.44930317  0.30147839     0.76800
C1503       C  0.56947656  0.95164342  0.28328429     0.77800
O1504       O  0.63345729  0.57973648  0.25895231    -0.58100
O1505       O  0.55268896  0.95525763  0.25546277    -0.50100
O1506       O  0.98492989  0.50797833  0.22298736    -0.76200
O1507       O  0.55708296  0.54790218  0.34380701    -0.60100
C1508       C  0.52766036  0.54490694  0.35656278     0.91600
C1509       C  0.53212023  0.53785332  0.20673725     0.92800
C1510       C  0.93360683  0.55854117  0.26117970     0.77100
O1511       O  0.91071123  0.47870659  0.32538897    -0.49500
O1512       O  0.94243534  0.06263740  0.26040806    -0.50600
O1513       O  0.95435533  0.94942930  0.27882977    -0.63500
O1514       O  0.51807384  0.60050206  0.28171727    -0.64600
C1515       C  0.67306629  0.85378730  0.00222617     0.31500
C1516       C  0.67265753  0.85681598  0.08156598     0.31500
C1517       C  0.65077349  0.87090235  0.02141095    -0.04700
C1518       C  0.65466894  0.80713007  0.01947000    -0.05500
C1519       C  0.71382311  0.88490692  0.02483974    -0.05400
C1520       C  0.65094547  0.87304194  0.06143854    -0.04700
C1521       C  0.65436104  0.80905911  0.05943083    -0.05500
C1522       C  0.71351292  0.88728104  0.06490985    -0.05400
C1523       C  0.63236466  0.89266489  0.07224729    -0.30800
N1524       N  0.61930092  0.90014324  0.04051996     0.15700
C1525       C  0.63067374  0.88741552  0.00918722    -0.30800
H1526       H  0.62574042  0.89090808  0.97983555     0.17700
C1527       C  0.63475528  0.76442145  0.06922317    -0.29700
N1528       N  0.62366657  0.73540710  0.03681071     0.14500
C1529       C  0.63588744  0.76090024  0.00622245    -0.29700
C1530       C  0.75202176  0.91105697  0.07923166    -0.30000
N1531       N  0.77511706  0.92018557  0.04962731     0.15000
H1532       H  0.76249956  0.91885971  0.10900919     0.17600
C1533       C  0.75219817  0.90396450  0.01639582    -0.30000
H1534       H  0.76237735  0.90418728  0.98824666     0.17600
H1535       H  0.62987916  0.74650573  0.97666916     0.17600
H1536       H  0.62952574  0.90266100  0.10105535     0.17700
H1537       H  0.62767708  0.75347918  0.09778669     0.17600
C1538       C  0.67401119  0.85423319  0.25210857     0.31500
C1539       C  0.67277459  0.84691640  0.33037158     0.31500
C1540       C  0.65303427  0.87094130  0.27539746    -0.04700
C1541       C  0.65418560  0.80524776  0.26465238    -0.05500
C1542       C  0.71473787  0.88195059  0.27470850    -0.05400
C1543       C  0.65241070  0.86689993  0.31476371    -0.04700
C1544       C  0.65375514  0.80111233  0.30401227    -0.05500
C1545       C  0.71385645  0.87777517  0.31421396    -0.05400
C1546       C  0.63461580  0.88565617  0.33067500    -0.30800
N1547       N  0.62406364  0.90061518  0.30237823     0.15700
C1548       C  0.63602516  0.89299013  0.26882933    -0.30800
H1549       H  0.63430078  0.90506533  0.24217016     0.17700
C1550       C  0.63475497  0.75431445  0.30787234    -0.29700
N1551       N  0.62281329  0.73056962  0.27241237     0.14500
C1552       C  0.63452282  0.76132772  0.24598771    -0.29700
C1553       C  0.75150048  0.89553422  0.32746225    -0.30000
N1554       N  0.77531792  0.91132892  0.29799323     0.15000
H1555       H  0.76061336  0.89441626  0.35596693     0.17600
C1556       C  0.75350372  0.90385597  0.26576471    -0.30000
H1557       H  0.76490272  0.91258885  0.23782080     0.17600
H1558       H  0.62743649  0.75203339  0.21546383     0.17600
H1559       H  0.63017919  0.88884217  0.36070239     0.17700
H1560       H  0.62800473  0.73812099  0.33431152     0.17600
C1561       C  0.63997716  0.80694459  0.39163978    -0.11900
C1562       C  0.67198315  0.84506940  0.37438760     0.10300
C1563       C  0.70083474  0.88456782  0.39923201    -0.11900
C1564       C  0.70073455  0.88346513  0.43915966    -0.11900
C1565       C  0.67187564  0.84280238  0.45625255     0.10300
C1566       C  0.63994409  0.80578181  0.43175236    -0.11900
H1567       H  0.61425459  0.77839526  0.37432813     0.14300
H1568       H  0.72349286  0.91694529  0.38790961     0.14300
H1569       H  0.72350067  0.91490942  0.45679915     0.14300
H1570       H  0.61399266  0.77660809  0.44333582     0.14300
C1571       C  0.64224752  0.85135422  0.14686279    -0.11900
C1572       C  0.67215603  0.85537555  0.12574900     0.10300
C1573       C  0.69864971  0.85120924  0.14599648    -0.11900
C1574       C  0.69928062  0.85102421  0.18609994    -0.11900
C1575       C  0.67332919  0.85481268  0.20787821     0.10300
C1576       C  0.64281440  0.85106241  0.18693860    -0.11900
H1577       H  0.61688605  0.84561371  0.13255964     0.14300
H1578       H  0.71853746  0.84698825  0.13075902     0.14300
H1579       H  0.71947620  0.84644238  0.19983383     0.14300
H1580       H  0.61790942  0.84530353  0.20100121     0.14300
C1581       C  0.59319807  0.68130184  0.26400120    -0.14900
C1582       C  0.58798387  0.64990161  0.28670773    -0.30100
H1583       H  0.57186845  0.66961285  0.23997525     0.14100
H1584       H  0.60971405  0.65934886  0.30952345     0.14700
C1585       C  0.81656816  0.93130860  0.30172250    -0.14900
C1586       C  0.83671289  0.93233463  0.27195594    -0.30100
H1587       H  0.83174654  0.94601076  0.32998630     0.14100
H1588       H  0.82200895  0.91710300  0.24364430     0.14700
C1589       C  0.58323750  0.92242212  0.28003316    -0.14900
C1590       C  0.60589674  0.92380275  0.30802112    -0.30100
H1591       H  0.57704393  0.90196131  0.25290777     0.14100
H1592       H  0.61094341  0.94298016  0.33561652     0.14700
C1593       C  0.59740951  0.68561934  0.03625867    -0.14900
C1594       C  0.59233969  0.65635616  0.00654238    -0.30100
H1595       H  0.58075717  0.67129669  0.06140373     0.14100
H1596       H  0.61069859  0.66927675  0.98235917     0.14700
C1597       C  0.81666875  0.94172718  0.05407097    -0.14900
C1598       C  0.83546711  0.93522831  0.02694694    -0.30100
H1599       H  0.83305388  0.96377338  0.08032954     0.14100
H1600       H  0.81929722  0.91239572  0.00102991     0.14700
C1601       C  0.58299094  0.92516578  0.01134809    -0.14900
C1602       C  0.59864677  0.92049971  0.04232425    -0.30100
H1603       H  0.58495649  0.91305657  0.98289997     0.14100
H1604       H  0.59637931  0.93342465  0.07037104     0.14700
C1605       C  0.52986157  0.55423264  0.42908071    -0.11800
C1606       C  0.52961424  0.55547308  0.39571415    -0.13300
C1607       C  0.53875033  0.54940255  0.16912879    -0.11800
C1608       C  0.53953203  0.55565414  0.13649319    -0.13300
C1609       C  0.90595232  0.59938621  0.28031446    -0.14900
C1610       C  0.91609240  0.58225211  0.25177472    -0.30100
H1611       H  0.91127914  0.59553176  0.30961352     0.14100
H1612       H  0.90997234  0.58361576  0.22207177     0.14700
C1613       C  0.93916129  0.86214433  0.28284138    -0.14900
C1614       C  0.95784212  0.88913721  0.25433792    -0.30100
H1615       H  0.93626373  0.87735065  0.30927722     0.14100
H1616       H  0.96412769  0.87607172  0.22897738     0.14700
C1617       C  0.69755541  0.62911547  0.29232082    -0.14900
C1618       C  0.71726626  0.62884074  0.26260038    -0.30100
H1619       H  0.71296069  0.64731434  0.31991047     0.14100
H1620       H  0.70138808  0.61084063  0.23504802     0.14700
C1621       C  0.93289223  0.62784020  0.53099926    -0.14900
C1622       C  0.93562849  0.60292059  0.50262803    -0.30100
H1623       H  0.93522071  0.62261167  0.05943872     0.14100
H1624       H  0.92523219  0.60038419  0.47355886     0.14700
C1625       C  0.92516895  0.85769115  0.02408376    -0.14900
C1626       C  0.94838694  0.88938185  0.05345434    -0.30100
H1627       H  0.92140785  0.86925985  0.99780906     0.14100
H1628       H  0.95542698  0.87925557  0.07864143     0.14700
C1629       C  0.70986920  0.60946461  0.01296357    -0.14900
C1630       C  0.68910252  0.60871031  0.04198753    -0.30100
H1631       H  0.69752147  0.59061068  0.48362180     0.14100
H1632       H  0.70283835  0.62290180  0.07071468     0.14700
C1633       C  0.83283200  0.70069689  0.37984354    -0.11900
C1634       C  0.85918266  0.69800740  0.35774805     0.10300
C1635       C  0.88949778  0.70117785  0.37859072    -0.11900
C1636       C  0.88884743  0.69797257  0.41845928    -0.11900
C1637       C  0.85828725  0.69252000  0.43952541     0.10300
C1638       C  0.83240172  0.69800555  0.41972548    -0.11900
H1639       H  0.81352497  0.70703367  0.36696864     0.12900
H1640       H  0.91388459  0.70590950  0.36399517     0.14300
H1641       H  0.91334836  0.70168877  0.43265982     0.14300
H1642       H  0.81211809  0.70127259  0.43523916     0.14300
C1643       C  0.85314634  0.72413479  0.13096856    -0.11900
C1644       C  0.85237912  0.69056613  0.10662235     0.10300
C1645       C  0.84697107  0.65319546  0.12430466    -0.11900
C1646       C  0.84935452  0.65364922  0.16441542    -0.11900
C1647       C  0.85537898  0.69048629  0.18896973     0.10300
C1648       C  0.85403853  0.72365920  0.17119106    -0.11900
H1649       H  0.85181184  0.75005500  0.11913384     0.14300
H1650       H  0.84067957  0.62300129  0.10705985     0.14300
H1651       H  0.84452704  0.62372309  0.17583212     0.14300
H1652       H  0.85327250  0.74927003  0.18843763     0.14300
C1653       C  0.85543880  0.69056396  0.56279250     0.31500
C1654       C  0.85220669  0.68576681  0.98259175     0.31500
C1655       C  0.81527012  0.65849486  0.53985069    -0.04700
C1656       C  0.87385836  0.73773536  0.54632942    -0.05500
C1657       C  0.87946288  0.67583975  0.54371644    -0.05400
C1658       C  0.81175065  0.65850672  0.00039790    -0.04700
C1659       C  0.87322484  0.73443475  0.00406670    -0.05500
C1660       C  0.87250296  0.66733261  0.00260278    -0.05400
C1661       C  0.77319158  0.63641270  0.98716019    -0.30800
N1662       N  0.75099730  0.62870136  0.01736562     0.15700
C1663       C  0.77683653  0.63750644  0.54907021    -0.30800
H1664       H  0.76731419  0.63574292  0.57776287     0.17700
C1665       C  0.89255216  0.77855011  0.99314401    -0.29700
N1666       N  0.90078332  0.80898601  0.52949476     0.14500
C1667       C  0.89192041  0.78381397  0.55992984    -0.29700
C1668       C  0.89202640  0.64815079  0.99263459    -0.30000
N1669       N  0.90606304  0.64295408  0.02530701     0.15000
H1670       H  0.89548974  0.63835155  0.96404663     0.17600
C1671       C  0.90141598  0.66223690  0.55666088    -0.30000
H1672       H  0.90781181  0.66083510  0.58616864     0.17600
H1673       H  0.89830245  0.79836502  0.58944876     0.17600
H1674       H  0.76198870  0.62824100  0.95760021     0.17700
H1675       H  0.89627326  0.78806712  0.96409142     0.17600
C1676       C  0.84965891  0.68763780  0.81177446     0.31500
C1677       C  0.85170412  0.68385285  0.73251720     0.31500
C1678       C  0.81103595  0.67006518  0.78881640    -0.04700
C1679       C  0.88009101  0.73401706  0.79487197    -0.05500
C1680       C  0.85838077  0.65498039  0.79244774    -0.05400
C1681       C  0.81246264  0.66855400  0.74892918    -0.04700
C1682       C  0.88140124  0.73201907  0.75496442    -0.05500
C1683       C  0.86067079  0.65375541  0.75257852    -0.05400
C1684       C  0.77539477  0.65044654  0.73347185    -0.30800
N1685       N  0.75145150  0.64101519  0.76244039     0.15700
C1686       C  0.77251286  0.65162828  0.79614870    -0.30800
H1687       H  0.75990170  0.64369266  0.82360957     0.17700
C1688       C  0.90476100  0.77735208  0.74549634    -0.29700
N1689       N  0.91625117  0.80659103  0.77792089     0.14500
C1690       C  0.90102723  0.78056852  0.80806867    -0.29700
C1691       C  0.87572450  0.62914984  0.74341231    -0.30000
N1692       N  0.88005846  0.61358508  0.77581400     0.15000
H1693       H  0.88490384  0.62501665  0.71586337     0.17600
C1694       C  0.86878697  0.62835682  0.80545184    -0.30000
H1695       H  0.86989019  0.62165243  0.83476158     0.17600
H1696       H  0.90259630  0.79430042  0.83709527     0.17600
H1697       H  0.76625877  0.64375236  0.70333545     0.17700
H1698       H  0.91009600  0.78820989  0.71691429     0.17600
C1699       C  0.64717652  0.57162575  0.53783432     0.77900
Tb1700     Tb  0.96605788  0.51267986  0.52697285     1.80700
O1701       O  0.62535695  0.55640829  0.56559347    -0.50100
O1702       O  0.56204770  0.95302398  0.54643218    -0.57500
C1703       C  0.56148654  0.59992699  0.55727164     0.93800
O1704       O  0.95713002  0.57022214  0.54438102    -0.57100
Tb1705     Tb  0.56440074  0.51432623  0.52942843     1.78100
O1706       O  0.91715208  0.99718140  0.57633221    -0.57600
O1707       O  0.00224124  0.96915278  0.56903023    -0.76400
O1708       O  0.57212593  0.57579146  0.56780346    -0.75700
O1709       O  0.51743545  0.47541800  0.97442686    -0.60900
C1710       C  0.96817811  0.93984990  0.55232948     0.93300
O1711       O  0.00661922  0.55163180  0.58307861    -0.72900
C1712       C  0.88379722  0.45120425  0.52588384     0.76800
C1713       C  0.56945501  0.94057315  0.51528757     0.77800
O1714       O  0.62809432  0.56130775  0.50610339    -0.58100
O1715       O  0.56333677  0.95481355  0.48635442    -0.50100
O1716       O  0.96782887  0.46526455  0.98332336    -0.76200
O1717       O  0.52470971  0.47950626  0.57975177    -0.60100
C1718       C  0.51185315  0.49671414  0.60134425     0.91600
C1719       C  0.49672717  0.48178479  0.95389387     0.92800
C1720       C  0.94714276  0.57431441  0.01044277     0.77100
O1721       O  0.90516836  0.47935220  0.55457632    -0.49500
O1722       O  0.95196731  0.06425067  0.98691577    -0.50600
O1723       O  0.95311352  0.95256987  0.53030717    -0.63500
O1724       O  0.52812525  0.58212974  0.54001593    -0.64600
C1725       C  0.64600135  0.58886295  0.78370196     0.77900
Tb1726     Tb  0.95901532  0.50442327  0.77493161     1.80700
O1727       O  0.62661855  0.57480815  0.81317082    -0.50100
O1728       O  0.57371393  0.97259257  0.80232441    -0.57500
C1729       C  0.56030049  0.60263881  0.80444018     0.93800
O1730       O  0.93640060  0.54823971  0.79430045    -0.57100
Tb1731     Tb  0.56499073  0.51910264  0.78065843     1.78100
O1732       O  0.89884526  0.95349338  0.74673509    -0.57600
O1733       O  0.00356231  0.96138785  0.74040172    -0.76400
O1734       O  0.56720103  0.57681742  0.81920710    -0.75700
O1735       O  0.54764516  0.54650446  0.73345563    -0.60900
C1736       C  0.97088003  0.93162360  0.75408401     0.93300
O1737       O  0.97794016  0.50780632  0.83793540    -0.72900
C1738       C  0.87790904  0.43779194  0.77075122     0.76800
C1739       C  0.57864533  0.95805211  0.77071764     0.77800
O1740       O  0.62482568  0.57088698  0.75258190    -0.58100
O1741       O  0.56803801  0.96809568  0.74202861    -0.50100
O1742       O  0.98723104  0.50552336  0.71859959    -0.76200
O1743       O  0.52290789  0.47742561  0.82767221    -0.60100
C1744       C  0.50194270  0.48489343  0.84719810     0.91600
C1745       C  0.51685913  0.51861679  0.71186258     0.92800
C1746       C  0.93182609  0.55677090  0.76127571     0.77100
O1747       O  0.89789494  0.46250731  0.80123130    -0.49500
O1748       O  0.94077379  0.04714588  0.73389425    -0.50600
O1749       O  0.95223269  0.94406590  0.77191585    -0.63500
O1750       O  0.52770478  0.58587665  0.78610705    -0.64600
C1751       C  0.67355363  0.84263714  0.50049369     0.31500
C1752       C  0.67847689  0.84860225  0.58018354     0.31500
C1753       C  0.65892978  0.86785484  0.52145383    -0.04700
C1754       C  0.65072698  0.79616654  0.51864235    -0.05500
C1755       C  0.71485431  0.86722822  0.52022406    -0.05400
C1756       C  0.66155901  0.87152182  0.56148832    -0.04700
C1757       C  0.65313682  0.79940345  0.55879232    -0.05500
C1758       C  0.71814607  0.87114185  0.56044439    -0.05400
C1759       C  0.64359015  0.89177546  0.57327973    -0.30800
N1760       N  0.62872025  0.89795125  0.54204716     0.15700
C1761       C  0.63828487  0.88381717  0.51020595    -0.30800
H1762       H  0.63001295  0.88367293  0.48097727     0.17700
C1763       C  0.63278811  0.75487168  0.56933597    -0.29700
N1764       N  0.61842593  0.72499374  0.53698840     0.14500
C1765       C  0.62954615  0.74959370  0.50611485    -0.29700
C1766       C  0.75770883  0.89228695  0.57050051    -0.30000
N1767       N  0.77708624  0.89936518  0.53784394     0.15000
H1768       H  0.77127146  0.90121105  0.59912632     0.17600
C1769       C  0.75105727  0.88366275  0.50742086    -0.30000
H1770       H  0.75810707  0.88361929  0.47786019     0.17600
H1771       H  0.62318197  0.73411298  0.47688038     0.17600
H1772       H  0.64038184  0.90041791  0.60242930     0.17700
H1773       H  0.62845772  0.74502885  0.59827860     0.17600
C1774       C  0.67552056  0.84865819  0.75192961     0.31500
C1775       C  0.67405225  0.84928130  0.83135887     0.31500
C1776       C  0.66045462  0.87438502  0.77263484    -0.04700
C1777       C  0.64980457  0.80080760  0.76806994    -0.05500
C1778       C  0.71562490  0.87168179  0.77483857    -0.05400
C1779       C  0.65973227  0.87425727  0.81253401    -0.04700
C1780       C  0.64955900  0.80120069  0.80806418    -0.05500
C1781       C  0.71456293  0.87122069  0.81478514    -0.05400
C1782       C  0.64273732  0.89508905  0.82530012    -0.30800
N1783       N  0.63295161  0.90798873  0.79476764     0.15700
C1784       C  0.64422197  0.89637411  0.76259801    -0.30800
H1785       H  0.64077829  0.90331201  0.73406760     0.17700
C1786       C  0.63077839  0.75595387  0.81629464    -0.29700
N1787       N  0.61804655  0.72806867  0.78294682     0.14500
C1788       C  0.62939907  0.75490710  0.75334382    -0.29700
C1789       C  0.75162907  0.88772600  0.82912042    -0.30000
N1790       N  0.77533732  0.89926647  0.79964852     0.15000
H1791       H  0.76065394  0.89020780  0.85866844     0.17600
C1792       C  0.75410087  0.89083132  0.76669215    -0.30000
H1793       H  0.76633147  0.89931053  0.73907914     0.17600
H1794       H  0.62411893  0.74201932  0.72337712     0.17600
H1795       H  0.63674108  0.89925437  0.85458448     0.17700
H1796       H  0.62706857  0.74403038  0.84438518     0.17600
C1797       C  0.63950727  0.81577729  0.89403224    -0.11900
C1798       C  0.67276260  0.85090437  0.87567159     0.10300
C1799       C  0.70324442  0.89042247  0.89939840    -0.11900
C1800       C  0.70312151  0.89163964  0.93959083    -0.11900
C1801       C  0.67258653  0.85326977  0.95792247     0.10300
C1802       C  0.63951956  0.81680651  0.93426974    -0.11900
H1803       H  0.61283580  0.78781158  0.87748855     0.14300
H1804       H  0.72733650  0.92083067  0.88688528     0.14300
H1805       H  0.72682182  0.92334899  0.95617801     0.14300
H1806       H  0.61320165  0.78919794  0.94684153     0.14300
C1807       C  0.64615824  0.84178062  0.64440485    -0.11900
C1808       C  0.67777877  0.84800972  0.62467751     0.10300
C1809       C  0.70425075  0.84518562  0.64648447    -0.11900
C1810       C  0.70260604  0.84350638  0.68659805    -0.11900
C1811       C  0.67538322  0.84630311  0.70715471     0.10300
C1812       C  0.64526224  0.84160329  0.68461056    -0.11900
H1813       H  0.62113394  0.83558373  0.62877983     0.14300
H1814       H  0.72531569  0.84216884  0.63252365     0.14300
H1815       H  0.72189248  0.83811289  0.70103987     0.14300
H1816       H  0.62009937  0.83633028  0.69782240     0.14300
C1817       C  0.59325745  0.67802475  0.77917058    -0.14900
C1818       C  0.59075095  0.65336019  0.80756491    -0.30100
H1819       H  0.57493976  0.65974212  0.75272612     0.14100
H1820       H  0.61102998  0.67030301  0.83284526     0.14700
C1821       C  0.81673581  0.91979076  0.80373531    -0.14900
C1822       C  0.83641779  0.91930526  0.77411289    -0.30100
H1823       H  0.83259471  0.93775874  0.83127643     0.14100
H1824       H  0.82068581  0.90007191  0.74687266     0.14700
C1825       C  0.59654507  0.93345466  0.76711327    -0.14900
C1826       C  0.61316656  0.92944096  0.79768768    -0.30100
H1827       H  0.59732274  0.92022342  0.73866796     0.14100
H1828       H  0.61146964  0.94245923  0.82594105     0.14700
C1829       C  0.59243634  0.67515943  0.53427252    -0.14900
C1830       C  0.58954920  0.65077428  0.56283517    -0.30100
H1831       H  0.57490033  0.65664346  0.50744985     0.14100
H1832       H  0.60920492  0.66773078  0.58853535     0.14700
C1833       C  0.81799037  0.91975492  0.53312848    -0.14900
C1834       C  0.84658863  0.94379748  0.56141656    -0.30100
H1835       H  0.82632988  0.91829512  0.50413592     0.14100
H1836       H  0.83968573  0.94704772  0.59058530     0.14700
C1837       C  0.58710308  0.91570779  0.51299045    -0.14900
C1838       C  0.60584086  0.91549300  0.54395540    -0.30100
H1839       H  0.58805588  0.90180296  0.48493631     0.14100
H1840       H  0.60472504  0.93028878  0.57160903     0.14700
C1841       C  0.48838574  0.46373836  0.91548888    -0.11800
C1842       C  0.49021639  0.46525585  0.88200332    -0.13300
C1843       C  0.52039116  0.50782909  0.67404727    -0.11800
C1844       C  0.51782604  0.49901266  0.64065322    -0.13300
C1845       C  0.89662995  0.58895667  0.78099920    -0.14900
C1846       C  0.91446232  0.58106657  0.75362232    -0.30100
H1847       H  0.89557547  0.57749753  0.80907803     0.14100
H1848       H  0.91578842  0.59155156  0.72518101     0.14700
C1849       C  0.93428046  0.85568749  0.77978445    -0.14900
C1850       C  0.95519216  0.88218147  0.75155632    -0.30100
H1851       H  0.93058413  0.87172613  0.80512260     0.14100
H1852       H  0.96220700  0.86812015  0.72751711     0.14700
C1853       C  0.68937498  0.61980321  0.78612046    -0.14900
C1854       C  0.70987346  0.61939674  0.75730918    -0.30100
H1855       H  0.70431184  0.63858133  0.81370579     0.14100
H1856       H  0.69454856  0.60052772  0.72976363     0.14700
C1857       C  0.92689104  0.62327717  0.03025499    -0.14900
C1858       C  0.93327258  0.60209543  0.00167221    -0.30100
H1859       H  0.94301942  0.62887913  0.55987764     0.14100
H1860       H  0.92490815  0.60133870  0.97219817     0.14700
C1861       C  0.91808198  0.85761241  0.53016792    -0.14900
C1862       C  0.94669893  0.88975860  0.55648094    -0.30100
H1863       H  0.91053069  0.86880656  0.50604780     0.14100
H1864       H  0.95678280  0.87919062  0.57887483     0.14700
C1865       C  0.71195880  0.60220454  0.51226448    -0.14900
C1866       C  0.69033560  0.59629911  0.54234968    -0.30100
H1867       H  0.69496002  0.59424826  0.98463393     0.14100
H1868       H  0.70374657  0.60690589  0.57127543     0.14700
C1869       C  0.82526856  0.69357826  0.87849919    -0.11900
C1870       C  0.85161976  0.69101252  0.85639725     0.10300
C1871       C  0.88226569  0.69465789  0.87707905    -0.11900
C1872       C  0.88213170  0.69195130  0.91694961    -0.11900
C1873       C  0.85205706  0.68714754  0.93830878     0.10300
C1874       C  0.82596250  0.69250070  0.91857246    -0.11900
H1875       H  0.80527013  0.69877983  0.86544144     0.12900
H1876       H  0.90651143  0.69924493  0.86230260     0.14300
H1877       H  0.90667667  0.69557643  0.93099398     0.14300
H1878       H  0.80650551  0.69714297  0.93416774     0.14300
C1879       C  0.84969695  0.71846318  0.63095966    -0.11900
C1880       C  0.85250790  0.68772492  0.60667821     0.10300
C1881       C  0.84761759  0.65020673  0.62352042    -0.11900
C1882       C  0.84738078  0.64849470  0.66345527    -0.11900
C1883       C  0.85059407  0.68340958  0.68825061     0.10300
C1884       C  0.84845668  0.71609208  0.67081511    -0.11900
H1885       H  0.84703877  0.74346522  0.61933362     0.14300
H1886       H  0.84367478  0.62164045  0.60575502     0.14300
H1887       H  0.84275130  0.61845673  0.67432262     0.14300
H1888       H  0.84564514  0.74001960  0.68813134     0.14300
loop_ 
_geom_bond_atom_site_label_1 
_geom_bond_atom_site_label_2 
_geom_bond_distance 
_geom_bond_site_symmetry_2 
_ccdc_geom_bond_type 
C1            C3   1.537       .  S
C1            C5   1.537       .  S
C1            C4   1.543       .  S
C1          C228   1.554       .  S
C2            C6   1.550       .  S
C2            C8   1.554       .  S
C2            C7   1.532       .  S
C2          C221   1.560       .  S
C3           C11   1.377       .  A
C3          C242   1.402   1_554  A
C4           C15   1.381       .  A
C4          C243   1.404       .  A
C5           C19   1.370       .  A
C5          C244   1.403       .  A
C6            C9   1.381       .  A
C6          C239   1.401       .  A
C7           C13   1.370       .  A
C7          C240   1.401       .  A
C8           C16   1.390       .  A
C8          C241   1.410       .  A
C9           N10   1.357       .  A
C9           H22   1.081       .  S
N10         C247   1.360       .  A
N10         C449   1.442       .  S
C11         N246   1.360       .  A
C11          H12   1.082       .  S
C13         N250   1.356       .  A
C13          H23   1.082       .  S
N14          C15   1.357       .  A
N14         C249   1.350   1_554  A
N14         C209   1.427       .  S
C15          H21   1.079       .  S
C16          N17   1.360       .  A
C16          H18   1.079       .  S
N17         C255   1.350       .  A
N17         C205   1.436       .  S
C19         N253   1.351       .  A
C19          H20   1.083       .  S
C24          C26   1.550       .  S
C24          C28   1.540       .  S
C24          C27   1.540       .  S
C24         C218   1.559       .  S
C25          C29   1.534       .  S
C25          C31   1.548       .  S
C25          C30   1.545       .  S
C25         C231   1.551       .  S
C26          C34   1.383       .  A
C26          C29   1.401       .  A
C27          C38   1.377       .  A
C27          C30   1.402       .  A
C28          C42   1.370       .  A
C28          C31   1.401       .  A
C29          C32   1.374       .  A
C30          C36   1.379       .  A
C31          C39   1.387       .  A
C32          N33   1.354       .  A
C32          H45   1.083       .  S
N33          C34   1.361       .  A
N33         C202   1.439       .  S
C34          H35   1.079       .  S
C36          N37   1.360       .  A
C36          H46   1.081       .  S
N37          C38   1.357       .  A
N37         C197   1.440       .  S
C38          H44   1.083       .  S
C39          N40   1.360       .  A
C39          H41   1.081       .  S
N40          C42   1.352       .  A
N40         C193   1.436       .  S
C42          H43   1.082       .  S
C47          O62   1.261       .  A
C47          O49   1.259       .  A
C47         C214   1.471       .  S
Tb48         O59   2.315       .  S
Tb48         O52   2.338       .  S
Tb48         O69   2.360   1_545  S
Tb48        O778   2.351   1_554  S
Tb48        O543   2.334   1_545  S
Tb48        O526   2.344   1_544  S
Tb48        O300   2.314   1_544  S
Tb48       O1016   2.331       .  S
O49         Tb53   2.355       .  S
O50          C61   1.264       .  A
O50        Tb525   2.339       .  S
C51          O56   1.265   1_554  A
C51          O72   1.269       .  A
C51         C178   1.467       .  S
O52         C304   1.264       .  A
Tb53         O62   2.351       .  S
Tb53         O56   2.338   1_554  S
Tb53         O65   2.331       .  S
Tb53        O522   2.360   1_545  S
Tb53        O293   2.339   1_544  S
Tb53        O535   2.364   1_545  S
Tb53       O1471   2.331   1_545  S
O54         C532   1.261   1_556  A
O54        Tb520   2.343   1_556  S
O55          C58   1.269       .  A
O55       Tb1469   2.348       .  S
O57          C67   1.265   1_455  A
O57        Tb289   2.325   1_565  S
C58          O71   1.271       .  A
C58         C210   1.465       .  S
O59        C1010   1.267       .  A
C60          O69   1.264       .  A
C60         O526   1.260   1_554  A
C60         C654   1.470       .  S
C61          O63   1.263   1_554  A
C61         C185   1.471       .  S
O63        Tb525   2.354   1_556  S
O64        C1011   1.257   1_565  A
O64        Tb284   2.284   1_565  S
O65          C66   1.269       .  A
C66        O1003   1.269   1_455  A
C66         C192   1.402       .  S
C67        O1008   1.267   1_565  A
C67         C189   1.400       .  S
C68         O288   1.263       .  A
C68         O542   1.265       .  A
C68         C206   1.475       .  S
O70         C540   1.263       .  A
O70        Tb756   2.357       .  S
O71        Tb520   2.328       .  S
O72        Tb992   2.335   1_455  S
C73          O88   1.262       .  A
C73          O75   1.259       .  A
C73         C201   1.471       .  S
Tb74         O90   2.342       .  S
Tb74         O85   2.351       .  S
Tb74         O78   2.326       .  S
Tb74         O95   2.362   1_545  S
Tb74        O568   2.379       .  S
Tb74        O569   2.373   1_545  S
Tb74        O552   2.349   1_545  S
Tb74       O1042   2.347       .  S
O75         Tb79   2.351       .  S
O76          C87   1.263       .  A
O76        Tb551   2.366       .  S
C77          O82   1.265       .  A
C77          O98   1.267       .  A
C77         C166   1.466       .  S
O78          C94   1.260       .  A
Tb79         O83   2.332       .  S
Tb79         O88   2.355       .  S
Tb79         O82   2.337       .  S
Tb79         O91   2.326   1_545  S
Tb79        O548   2.357   1_545  S
Tb79        O561   2.355   1_545  S
Tb79       O1497   2.338   1_545  S
O80         C558   1.262       .  A
O80        Tb546   2.342       .  S
O81          C84   1.274       .  A
O81       Tb1495   2.354       .  S
O83          C93   1.269       .  A
C84          O97   1.273       .  A
C84         C198   1.475       .  S
O85        C1036   1.276       .  A
C86          O95   1.263       .  A
C86         O552   1.261       .  A
C86         C642   1.474       .  S
C87          O89   1.261       .  A
C87         C173   1.472       .  S
O89        Tb551   2.343       .  S
O90        C1037   1.277       .  A
O91          C92   1.268   1_455  A
C92        O1029   1.270   1_565  A
C92         C190   1.402       .  S
C93        O1034   1.269   1_455  A
C93         C191   1.402       .  S
C94         O568   1.265       .  A
C94         C194   1.476       .  S
O96         C566   1.262       .  A
O96        Tb546   2.369       .  S
O97        Tb546   2.362       .  S
O98       Tb1018   2.332   1_455  S
C99         C101   1.538       .  S
C99         C103   1.548       .  S
C99         C102   1.544       .  S
C99         C385   1.559   1_554  S
C100        C104   1.544       .  S
C100        C106   1.547       .  S
C100        C105   1.531       .  S
C100        C156   1.557       .  S
C101        C109   1.379       .  A
C101        C104   1.402       .  A
C102        C113   1.380       .  A
C102        C105   1.402       .  A
C103        C117   1.376       .  A
C103        C106   1.404       .  A
C104        C107   1.376       .  A
C105        C111   1.368       .  A
C106        C114   1.384       .  A
C107        N108   1.353       .  A
C107        H120   1.080       .  S
N108        C109   1.360       .  A
N108        C186   1.437       .  S
C109        H110   1.082   1_554  S
C111        N112   1.352       .  A
C111        H121   1.083       .  S
N112        C113   1.361       .  A
N112        C177   1.431       .  S
C113        H119   1.081   1_554  S
C114        N115   1.358       .  A
C114        H116   1.082       .  S
N115        C117   1.358       .  A
N115        C181   1.444       .  S
C117        H118   1.079   1_554  S
C122        C124   1.542       .  S
C122        C126   1.541       .  S
C122        C125   1.534       .  S
C122        C159   1.561       .  S
C123        C127   1.547       .  S
C123        C129   1.559       .  S
C123        C128   1.539       .  S
C123        C146   1.555       .  S
C124        C132   1.376       .  A
C124        C127   1.402       .  A
C125        C136   1.373       .  A
C125        C128   1.399       .  A
C126        C140   1.368       .  A
C126        C129   1.405       .  A
C127        C130   1.383       .  A
C128        C134   1.375       .  A
C129        C137   1.398       .  A
C130        N131   1.359       .  A
C130        H143   1.083       .  S
N131        C132   1.359       .  A
N131        C174   1.445       .  S
C132        H133   1.078       .  S
C134        N135   1.357       .  A
C134        H144   1.081       .  S
N135        C136   1.356       .  A
N135        C165   1.433       .  S
C136        H142   1.083       .  S
C137        N138   1.364       .  A
C137        H139   1.081       .  S
N138        C140   1.349       .  A
N138        C169   1.442       .  S
C140        H141   1.081       .  S
C145        C146   1.414       .  A
C145        C150   1.412       .  A
C145        H151   1.081       .  S
C146        C147   1.409       .  A
C147        C148   1.410       .  A
C147        H152   1.079       .  S
C148        C149   1.414       .  A
C148        H153   1.078       .  S
C149        C335   1.557       .  S
C149        C150   1.410       .  A
C150        H154   1.082       .  S
C155        C156   1.414       .  A
C155        C160   1.411       .  A
C155        H161   1.077       .  S
C156        C157   1.409       .  A
C157        C158   1.409       .  A
C157        H162   1.081       .  S
C158        C159   1.413       .  A
C158        H163   1.081       .  S
C159        C160   1.409       .  A
C160        H164   1.077       .  S
C165        C166   1.344       .  D
C165        H167   1.088       .  S
C166        H168   1.085       .  S
C169        C170   1.345       .  D
C169        H171   1.088       .  S
C170        C558   1.485       .  S
C170        H172   1.085       .  S
C173        C174   1.348       .  D
C173        H175   1.083       .  S
C174        H176   1.087       .  S
C177        C178   1.340       .  D
C177        H179   1.088       .  S
C178        H180   1.086   1_554  S
C181        C182   1.346       .  D
C181        H183   1.087       .  S
C182        C532   1.471       .  S
C182        H184   1.083       .  S
C185        C186   1.343       .  D
C185        H187   1.084   1_554  S
C186        H188   1.088       .  S
C189        C190   1.185       .  T
C191        C192   1.186       .  T
C193        C194   1.345       .  D
C193        H195   1.088       .  S
C194        H196   1.084       .  S
C197        C198   1.345       .  D
C197        H199   1.087       .  S
C198        H200   1.086       .  S
C201        C202   1.343       .  D
C201        H203   1.085       .  S
C202        H204   1.087       .  S
C205        C206   1.343       .  D
C205        H443   1.088       .  S
C206        H208   1.085       .  S
H207        C441   1.088       .  S
C209        C210   1.342       .  D
C209        H211   1.088   1_554  S
C210        H212   1.086       .  S
C213        N246   1.438       .  S
C213        C214   1.343       .  D
C213        H451   1.087   1_554  S
C214        H216   1.085       .  S
H215        C449   1.087       .  S
C217        C218   1.408       .  A
C217        C222   1.409       .  A
C217        H223   1.078       .  S
C218        C219   1.414       .  A
C219        C220   1.413       .  A
C219        H224   1.082       .  S
C220        C221   1.412       .  A
C220        H225   1.078       .  S
C221        C222   1.413       .  A
C222        H226   1.080       .  S
C227        C228   1.410       .  A
C227        C232   1.410       .  A
C227        H233   1.076       .  S
C228        C229   1.411       .  A
C229        C230   1.408       .  A
C229        H234   1.083       .  S
C230        C231   1.411       .  A
C230        H235   1.080       .  S
C231        C232   1.411       .  A
C232        H236   1.080       .  S
C237        C239   1.534       .  S
C237        C241   1.543       .  S
C237        C240   1.539       .  S
C237        C464   1.563       .  S
C238        C242   1.544       .  S
C238        C244   1.552   1_556  S
C238        C243   1.531   1_556  S
C238        C457   1.561       .  S
C239        C247   1.376       .  A
C240        C251   1.375       .  A
C241        C255   1.370       .  A
C242        C245   1.377       .  A
C243        C249   1.365   1_554  A
C244        C252   1.384   1_554  A
C245        N246   1.355   1_556  A
C245        H258   1.081       .  S
C247        H248   1.082       .  S
C249        H259   1.083       .  S
N250        C251   1.356       .  A
N250        C445   1.429       .  S
C251        H257   1.082       .  S
C252        N253   1.363   1_556  A
C252        H254   1.079       .  S
N253        C441   1.437       .  S
C255        H256   1.082       .  S
C260        C262   1.543       .  S
C260        C264   1.543       .  S
C260        C263   1.534       .  S
C260        C454   1.566       .  S
C261        C265   1.539       .  S
C261        C267   1.555       .  S
C261        C266   1.539       .  S
C261        C467   1.563       .  S
C262        C270   1.376       .  A
C262        C265   1.403       .  A
C263        C274   1.372       .  A
C263        C266   1.403       .  A
C264        C278   1.372       .  A
C264        C267   1.408       .  A
C265        C268   1.376       .  A
C266        C272   1.375       .  A
C267        C275   1.389       .  A
C268        N269   1.356       .  A
C268        H281   1.083       .  S
N269        C270   1.358       .  A
N269        C438   1.438       .  S
C270        H271   1.079       .  S
C272        N273   1.356       .  A
C272        H282   1.081       .  S
N273        C274   1.355       .  A
N273        C433   1.430       .  S
C274        H280   1.083       .  S
C275        N276   1.362       .  A
C275        H277   1.080       .  S
N276        C278   1.351       .  A
N276        C429   1.439       .  S
C278        H279   1.081       .  S
C283        O298   1.262       .  A
C283        O285   1.260       .  A
C283        C450   1.474       .  S
Tb284       O542   2.365       .  S
Tb284       O779   2.346   1_545  S
Tb284       O762   2.346   1_545  S
Tb284       O295   2.300       .  S
Tb284       O288   2.325       .  S
Tb284      O1252   2.359       .  S
Tb284       O305   2.368   1_545  S
O285       Tb289   2.355       .  S
O286        C297   1.265       .  A
O286       Tb761   2.335       .  S
C287        O292   1.266       .  A
C287        O308   1.270       .  A
C287        C414   1.470       .  S
Tb289       O758   2.350   1_545  S
Tb289       O298   2.359       .  S
Tb289       O292   2.343       .  S
Tb289       O771   2.352   1_545  S
Tb289       O301   2.328       .  S
Tb289      O1707   2.351   1_545  S
O290        C768   1.261       .  A
O290       Tb756   2.342       .  S
O291        C294   1.269       .  A
O291      Tb1705   2.349       .  S
O293        C303   1.269   1_455  A
C294        O307   1.269       .  A
C294        C446   1.464       .  S
O295       C1246   1.267   1_545  A
C296        O762   1.261       .  A
C296        O305   1.264       .  A
C296        C890   1.476       .  S
C297        O299   1.263       .  A
C297        C421   1.471       .  S
O299       Tb761   2.355       .  S
O300       C1247   1.268       .  A
O301        C302   1.267       .  A
C302       O1239   1.267   1_455  A
C302        C428   1.401       .  S
C303       O1244   1.263   1_565  A
C303        C425   1.400       .  S
C304        O778   1.262   1_554  A
C304        C442   1.470       .  S
O306        C776   1.263   1_556  A
O306       Tb520   2.360   1_556  S
O307       Tb756   2.326       .  S
O308      Tb1228   2.332   1_455  S
C309        O324   1.262       .  A
C309        O311   1.261       .  A
C309        C437   1.466       .  S
Tb310       O804   2.356   1_565  S
Tb310       O805   2.351       .  S
Tb310       O788   2.344       .  S
Tb310       O326   2.295       .  S
Tb310       O321   2.318       .  S
Tb310       O314   2.341   1_565  S
Tb310      O1278   2.346   1_565  S
Tb310       O331   2.361       .  S
O311       Tb315   2.347       .  S
O312        C323   1.263       .  A
O312       Tb787   2.361       .  S
C313        O318   1.270       .  A
C313        O334   1.273       .  A
C313        C402   1.476       .  S
O314        C330   1.265       .  A
Tb315       O784   2.361   1_545  S
Tb315       O319   2.319       .  S
Tb315       O324   2.345       .  S
Tb315       O318   2.350       .  S
Tb315       O797   2.345   1_545  S
Tb315       O327   2.319   1_545  S
Tb315      O1733   2.341   1_545  S
O316        C794   1.262       .  A
O316       Tb782   2.340       .  S
O317        C320   1.274       .  A
O317      Tb1731   2.350       .  S
O319        C329   1.263       .  A
C320        O333   1.278       .  A
C320        C434   1.462       .  S
O321       C1272   1.270       .  A
C322        O788   1.260       .  A
C322        O331   1.263       .  A
C322        C878   1.471       .  S
C323        O325   1.260       .  A
C323        C409   1.469       .  S
O325       Tb787   2.342       .  S
O326       C1273   1.263   1_565  A
O327        C328   1.265   1_455  A
C328       O1265   1.271   1_565  A
C328        C426   1.401       .  S
C329       O1270   1.269   1_455  A
C329        C427   1.403       .  S
C330        O804   1.263       .  A
C330        C430   1.475       .  S
O332        C802   1.263       .  A
O332       Tb782   2.363       .  S
O333       Tb782   2.350       .  S
O334      Tb1254   2.354   1_455  S
C335        C337   1.537       .  S
C335        C339   1.549       .  S
C335        C338   1.539       .  S
C336        C340   1.545       .  S
C336        C342   1.546       .  S
C336        C341   1.533       .  S
C336        C392   1.562       .  S
C337        C345   1.379       .  A
C337        C340   1.401       .  A
C338        C349   1.380       .  A
C338        C341   1.401       .  A
C339        C353   1.378       .  A
C339        C342   1.410       .  A
C340        C343   1.377       .  A
C341        C347   1.366       .  A
C342        C350   1.381       .  A
C343        N344   1.353       .  A
C343        H356   1.080       .  S
N344        C345   1.359       .  A
N344        C422   1.436       .  S
C345        H346   1.081       .  S
C347        N348   1.353       .  A
C347        H357   1.083       .  S
N348        C349   1.360       .  A
N348        C413   1.430       .  S
C349        H355   1.082       .  S
C350        N351   1.355       .  A
C350        H352   1.081       .  S
N351        C353   1.358       .  A
N351        C417   1.440       .  S
C353        H354   1.079       .  S
C358        C360   1.546       .  S
C358        C362   1.539       .  S
C358        C361   1.538       .  S
C358        C395   1.562       .  S
C359        C363   1.542       .  S
C359        C365   1.557       .  S
C359        C364   1.542       .  S
C359        C382   1.557       .  S
C360        C368   1.378       .  A
C360        C363   1.403       .  A
C361        C372   1.375       .  A
C361        C364   1.400       .  A
C362        C376   1.369       .  A
C362        C365   1.405       .  A
C363        C366   1.380       .  A
C364        C370   1.380       .  A
C365        C373   1.393       .  A
C366        N367   1.356       .  A
C366        H379   1.083       .  S
N367        C368   1.359       .  A
N367        C410   1.441       .  S
C368        H369   1.078       .  S
C370        N371   1.359       .  A
C370        H380   1.081       .  S
N371        C372   1.358       .  A
N371        C401   1.439       .  S
C372        H378   1.083       .  S
C373        N374   1.364       .  A
C373        H375   1.080       .  S
N374        C376   1.349       .  A
N374        C405   1.440       .  S
C376        H377   1.082       .  S
C381        C382   1.414       .  A
C381        C386   1.412       .  A
C381        H387   1.081       .  S
C382        C383   1.409       .  A
C383        C384   1.410       .  A
C383        H388   1.079       .  S
C384        C385   1.415       .  A
C384        H389   1.079       .  S
C385        C386   1.410       .  A
C386        H390   1.081       .  S
C391        C392   1.414       .  A
C391        C396   1.410       .  A
C391        H397   1.075       .  S
C392        C393   1.411       .  A
C393        C394   1.411       .  A
C393        H398   1.081       .  S
C394        C395   1.414       .  A
C394        H399   1.082       .  S
C395        C396   1.408       .  A
C396        H400   1.075       .  S
C401        C402   1.347       .  D
C401        H403   1.088       .  S
C402        H404   1.085       .  S
C405        C406   1.343       .  D
C405        H407   1.089       .  S
C406        C794   1.478       .  S
C406        H408   1.085       .  S
C409        C410   1.345       .  D
C409        H411   1.085       .  S
C410        H412   1.087       .  S
C413        C414   1.342       .  D
C413        H415   1.088       .  S
C414        H416   1.085       .  S
C417        C418   1.344       .  D
C417        H419   1.087       .  S
C418        C768   1.469       .  S
C418        H420   1.084       .  S
C421        C422   1.342       .  D
C421        H423   1.084       .  S
C422        H424   1.088       .  S
C425        C426   1.185       .  T
C427        C428   1.185       .  T
C429        C430   1.342       .  D
C429        H431   1.088       .  S
C430        H432   1.084       .  S
C433        C434   1.341       .  D
C433        H435   1.088       .  S
C434        H436   1.086       .  S
C437        C438   1.345       .  D
C437        H439   1.084       .  S
C438        H440   1.087       .  S
C441        C442   1.341       .  D
C442        H444   1.084   1_554  S
C445        C446   1.343       .  D
C445        H447   1.088       .  S
C446        H448   1.085       .  S
C449        C450   1.345       .  D
C450        H452   1.084       .  S
C453        C454   1.411       .  A
C453        C458   1.411       .  A
C453        H459   1.078       .  S
C454        C455   1.414       .  A
C455        C456   1.413       .  A
C455        H460   1.081       .  S
C456        C457   1.412       .  A
C456        H461   1.079       .  S
C457        C458   1.413       .  A
C458        H462   1.080       .  S
C463        C464   1.410       .  A
C463        C468   1.414       .  A
C463        H469   1.081       .  S
C464        C465   1.415       .  A
C465        C466   1.412       .  A
C465        H470   1.080       .  S
C466        C467   1.410       .  A
C466        H471   1.078       .  S
C467        C468   1.415       .  A
C468        H472   1.081       .  S
C473        C475   1.538       .  S
C473        C477   1.539       .  S
C473        C476   1.541       .  S
C473        C700   1.560       .  S
C474        C478   1.549       .  S
C474        C480   1.555       .  S
C474        C479   1.530       .  S
C474        C693   1.559       .  S
C475        C483   1.377       .  A
C475        C714   1.409       .  A
C476        C487   1.380       .  A
C476        C715   1.403       .  A
C477        C491   1.371       .  A
C477        C716   1.405       .  A
C478        C711   1.405       .  A
C478        C481   1.380       .  A
C479        C712   1.399       .  A
C479        C485   1.366       .  A
C480        C713   1.406       .  A
C480        C488   1.390       .  A
C481        N482   1.355       .  A
C481        H494   1.081       .  S
N482        C719   1.357       .  A
N482        C921   1.438       .  S
C483        N718   1.357       .  A
C483        H484   1.081       .  S
C485        N722   1.354       .  A
C485        H495   1.082       .  S
N486        C721   1.350   1_554  A
N486        C487   1.356       .  A
N486        C681   1.427       .  S
C487        H493   1.079       .  S
C488        N489   1.363       .  A
C488        H490   1.079       .  S
N489        C727   1.350       .  A
N489        C677   1.438       .  S
C491        N725   1.352       .  A
C491        H492   1.082       .  S
C496        C498   1.550       .  S
C496        C500   1.544       .  S
C496        C499   1.542       .  S
C496        C690   1.563       .  S
C497        C501   1.536       .  S
C497        C503   1.547       .  S
C497        C502   1.542       .  S
C497        C703   1.558       .  S
C498        C506   1.382       .  A
C498        C501   1.402       .  A
C499        C510   1.379       .  A
C499        C502   1.402       .  A
C500        C514   1.374       .  A
C500        C503   1.409       .  A
C501        C504   1.375       .  A
C502        C508   1.378       .  A
C503        C511   1.388       .  A
C504        N505   1.354       .  A
C504        H517   1.083       .  S
N505        C506   1.360       .  A
N505        C674   1.439       .  S
C506        H507   1.079       .  S
C508        N509   1.360       .  A
C508        H518   1.081       .  S
N509        C510   1.358       .  A
N509        C669   1.441       .  S
C510        H516   1.083       .  S
C511        N512   1.355       .  A
C511        H513   1.082       .  S
N512        C514   1.348       .  A
N512        C665   1.433       .  S
C514        H515   1.080       .  S
C519        O534   1.264       .  A
C519        O521   1.262       .  A
C519        C686   1.470       .  S
Tb520       O772   2.308   1_554  S
Tb520       O531   2.308       .  S
Tb520       O524   2.338       .  S
Tb520      O1488   2.327       .  S
Tb520       O541   2.364       .  S
O521       Tb525   2.352       .  S
O522        C533   1.259       .  A
C523        O528   1.268       .  A
C523        O544   1.265   1_554  A
C523        C650   1.465       .  S
O524        C776   1.262       .  A
Tb525       O765   2.314   1_554  S
Tb525       O534   2.346       .  S
Tb525       O528   2.331       .  S
Tb525       O537   2.318       .  S
Tb525       O999   2.337   1_455  S
O527        C530   1.268       .  A
O527       Tb997   2.345   1_565  S
O529        C539   1.265   1_455  A
O529       Tb761   2.307       .  S
C530        O543   1.272       .  A
C530        C682   1.464       .  S
O531       C1482   1.266       .  A
C532        O541   1.263       .  A
C533        O535   1.260       .  A
C533        C657   1.477       .  S
O536       C1483   1.261       .  A
O536       Tb756   2.293       .  S
O537        C538   1.271       .  A
C538       O1475   1.270       .  A
C538        C664   1.405       .  S
C539       O1480   1.260       .  A
C539        C661   1.396       .  S
C540        O760   1.265       .  A
C540        C678   1.475       .  S
O544      Tb1464   2.341   1_456  S
C545        O560   1.264       .  A
C545        O547   1.261       .  A
C545        C673   1.469       .  S
Tb546       O562   2.350       .  S
Tb546       O557   2.352       .  S
Tb546       O550   2.332       .  S
Tb546      O1514   2.341       .  S
Tb546       O567   2.375       .  S
O547       Tb551   2.347       .  S
O548        C559   1.261       .  A
C549        O554   1.269       .  A
C549        O570   1.270       .  A
C549        C638   1.470       .  S
O550        C566   1.260       .  A
Tb551       O555   2.332       .  S
Tb551       O560   2.348       .  S
Tb551       O554   2.348       .  S
Tb551       O563   2.314       .  S
Tb551      O1025   2.346       .  S
O553        C556   1.274       .  A
O553      Tb1023   2.350   1_565  S
O555        C565   1.268       .  A
C556        O569   1.278       .  A
C556        C670   1.479       .  S
O557       C1508   1.276       .  A
C558        O567   1.262       .  A
C559        O561   1.261       .  A
C559        C645   1.473       .  S
O562       C1509   1.278       .  A
O563        C564   1.262   1_455  A
C564       O1501   1.267       .  A
C564        C662   1.396       .  S
C565       O1506   1.267   1_455  A
C565        C663   1.406       .  S
C566        C666   1.471       .  S
O570      Tb1490   2.335   1_455  S
C571        C573   1.535       .  S
C571        C575   1.544       .  S
C571        C574   1.538       .  S
C571        C857   1.551   1_554  S
C572        C576   1.550       .  S
C572        C578   1.548       .  S
C572        C577   1.536       .  S
C572        C628   1.555       .  S
C573        C581   1.377       .  A
C573        C576   1.401       .  A
C574        C585   1.376       .  A
C574        C577   1.402       .  A
C575        C589   1.376       .  A
C575        C578   1.400       .  A
C576        C579   1.382       .  A
C577        C583   1.373       .  A
C578        C586   1.383       .  A
C579        N580   1.358       .  A
C579        H592   1.081       .  S
N580        C581   1.360       .  A
N580        C658   1.442       .  S
C581        H582   1.082   1_554  S
C583        N584   1.354       .  A
C583        H593   1.083       .  S
N584        C585   1.356       .  A
N584        C649   1.430       .  S
C585        H591   1.081   1_554  S
C586        N587   1.357       .  A
C586        H588   1.082       .  S
N587        C589   1.359       .  A
N587        C653   1.442       .  S
C589        H590   1.080   1_554  S
C594        C596   1.543       .  S
C594        C598   1.547       .  S
C594        C597   1.533       .  S
C594        C631   1.559       .  S
C595        C599   1.543       .  S
C595        C601   1.552       .  S
C595        C600   1.542       .  S
C595        C618   1.559       .  S
C596        C604   1.377       .  A
C596        C599   1.401       .  A
C597        C608   1.372       .  A
C597        C600   1.401       .  A
C598        C612   1.377       .  A
C598        C601   1.406       .  A
C599        C602   1.381       .  A
C600        C606   1.378       .  A
C601        C609   1.385       .  A
C602        N603   1.360       .  A
C602        H615   1.083       .  S
N603        C604   1.359       .  A
N603        C646   1.444       .  S
C604        H605   1.079       .  S
C606        N607   1.357       .  A
C606        H616   1.081       .  S
N607        C608   1.355       .  A
N607        C637   1.433       .  S
C608        H614   1.083       .  S
C609        N610   1.359       .  A
C609        H611   1.082       .  S
N610        C612   1.358       .  A
N610        C641   1.444       .  S
C612        H613   1.080       .  S
C617        C618   1.414       .  A
C617        C622   1.413       .  A
C617        H623   1.080       .  S
C618        C619   1.410       .  A
C619        C620   1.411       .  A
C619        H624   1.081       .  S
C620        C621   1.414       .  A
C620        H625   1.080       .  S
C621        C807   1.560       .  S
C621        C622   1.411       .  A
C622        H626   1.081       .  S
C627        C628   1.410       .  A
C627        C632   1.409       .  A
C627        H633   1.079       .  S
C628        C629   1.412       .  A
C629        C630   1.410       .  A
C629        H634   1.080       .  S
C630        C631   1.411       .  A
C630        H635   1.079       .  S
C631        C632   1.412       .  A
C632        H636   1.080       .  S
C637        C638   1.345       .  D
C637        H639   1.088       .  S
C638        H640   1.085       .  S
C641        C642   1.348       .  D
C641        H643   1.087       .  S
C642        H644   1.085       .  S
C645        C646   1.348       .  D
C645        H647   1.084       .  S
C646        H648   1.087       .  S
C649        C650   1.342       .  D
C649        H651   1.088       .  S
C650        H652   1.086   1_554  S
C653        C654   1.344       .  D
C653        H655   1.087       .  S
C654        H656   1.084       .  S
C657        C658   1.347       .  D
C657        H659   1.085       .  S
C658        H660   1.087       .  S
C661        C662   1.182       .  T
C663        C664   1.188       .  T
C665        C666   1.341       .  D
C665        H667   1.088       .  S
C666        H668   1.086       .  S
C669        C670   1.347       .  D
C669        H671   1.087       .  S
C670        H672   1.086       .  S
C673        C674   1.344       .  D
C673        H675   1.085       .  S
C674        H676   1.087       .  S
C677        C678   1.341       .  D
C677        H915   1.088       .  S
C678        H680   1.085       .  S
H679        C913   1.088       .  S
C681        C682   1.341       .  D
C681        H683   1.088   1_554  S
C682        H684   1.086       .  S
C685        N718   1.439       .  S
C685        C686   1.344       .  D
C685        H923   1.087   1_554  S
C686        H688   1.083       .  S
H687        C921   1.088       .  S
C689        C690   1.409       .  A
C689        C694   1.409       .  A
C689        H695   1.076       .  S
C690        C691   1.414       .  A
C691        C692   1.413       .  A
C691        H696   1.081       .  S
C692        C693   1.411       .  A
C692        H697   1.077       .  S
C693        C694   1.413       .  A
C694        H698   1.080       .  S
C699        C700   1.413       .  A
C699        C704   1.413       .  A
C699        H705   1.076       .  S
C700        C701   1.411       .  A
C701        C702   1.409       .  A
C701        H706   1.082       .  S
C702        C703   1.413       .  A
C702        H707   1.079       .  S
C703        C704   1.410       .  A
C704        H708   1.082       .  S
C709        C711   1.532       .  S
C709        C713   1.540       .  S
C709        C712   1.538       .  S
C709        C936   1.554       .  S
C710        C714   1.546   1_556  S
C710        C716   1.555   1_556  S
C710        C715   1.532   1_556  S
C710        C929   1.566       .  S
C711        C719   1.374       .  A
C712        C723   1.379       .  A
C713        C727   1.369       .  A
C714        C717   1.379   1_554  A
C715        C721   1.367   1_554  A
C716        C724   1.387   1_554  A
C717        N718   1.354   1_556  A
C717        H730   1.081       .  S
C719        H720   1.081       .  S
C721        H731   1.083       .  S
N722        C723   1.355       .  A
N722        C917   1.429       .  S
C723        H729   1.081       .  S
C724        N725   1.362   1_556  A
C724        H726   1.079       .  S
N725        C913   1.439       .  S
C727        H728   1.082       .  S
C732        C734   1.547       .  S
C732        C736   1.552       .  S
C732        C735   1.540       .  S
C732        C926   1.568       .  S
C733        C737   1.536       .  S
C733        C739   1.550       .  S
C733        C738   1.533       .  S
C733        C939   1.554       .  S
C734        C742   1.380       .  A
C734        C737   1.400       .  A
C735        C746   1.375       .  A
C735        C738   1.402       .  A
C736        C750   1.377       .  A
C736        C739   1.413       .  A
C737        C740   1.376       .  A
C738        C744   1.374       .  A
C739        C747   1.391       .  A
C740        N741   1.354       .  A
C740        H753   1.083       .  S
N741        C742   1.360       .  A
N741        C910   1.439       .  S
C742        H743   1.078       .  S
C744        N745   1.356       .  A
C744        H754   1.081       .  S
N745        C746   1.356       .  A
N745        C905   1.433       .  S
C746        H752   1.083       .  S
C747        N748   1.358       .  A
C747        H749   1.081       .  S
N748        C750   1.350       .  A
N748        C901   1.442       .  S
C750        H751   1.080       .  S
C755        O770   1.264       .  A
C755        O757   1.262       .  A
C755        C922   1.468       .  S
Tb756       O767   2.307       .  S
Tb756       O760   2.340       .  S
Tb756      O1724   2.338       .  S
Tb756       O777   2.357       .  S
O757       Tb761   2.348       .  S
O758        C769   1.261       .  A
C759        O764   1.268       .  A
C759        O780   1.265       .  A
C759        C886   1.469       .  S
Tb761       O770   2.344       .  S
Tb761       O764   2.338       .  S
Tb761       O773   2.308       .  S
Tb761      O1235   2.340   1_455  S
O763        C766   1.268       .  A
O763      Tb1233   2.337   1_565  S
O765        C775   1.267   1_455  A
C766        O779   1.273       .  A
C766        C918   1.458       .  S
O767       C1718   1.269       .  A
C768        O777   1.264       .  A
C769        O771   1.260       .  A
C769        C893   1.470       .  S
O772       C1719   1.267       .  A
O773        C774   1.268       .  A
C774       O1711   1.270       .  A
C774        C900   1.400       .  S
C775       O1716   1.258       .  A
C775        C897   1.396       .  S
C776        C914   1.474       .  S
O780      Tb1700   2.342   1_455  S
C781        O796   1.263       .  A
C781        O783   1.260       .  A
C781        C909   1.466       .  S
Tb782       O798   2.299       .  S
Tb782       O793   2.318       .  S
Tb782       O786   2.351       .  S
Tb782      O1750   2.337       .  S
Tb782       O803   2.368       .  S
O783       Tb787   2.342       .  S
O784        C795   1.264       .  A
C785        O790   1.268       .  A
C785        O806   1.268       .  A
C785        C874   1.466       .  S
O786        C802   1.264       .  A
Tb787       O791   2.319       .  S
Tb787       O796   2.352       .  S
Tb787       O790   2.346       .  S
Tb787       O799   2.316       .  S
Tb787      O1261   2.347       .  S
O789        C792   1.268       .  A
O789      Tb1259   2.342   1_565  S
O791        C801   1.263       .  A
C792        O805   1.274       .  A
C792        C906   1.464       .  S
O793       C1744   1.269       .  A
C794        O803   1.262       .  A
C795        O797   1.261       .  A
C795        C881   1.472       .  S
O798       C1745   1.263       .  A
O799        C800   1.266   1_455  A
C800       O1737   1.268       .  A
C800        C898   1.396       .  S
C801       O1742   1.265   1_455  A
C801        C899   1.401       .  S
C802        C902   1.479       .  S
O806      Tb1726   2.327   1_455  S
C807        C809   1.534       .  S
C807        C811   1.546       .  S
C807        C810   1.542       .  S
C808        C812   1.548       .  S
C808        C814   1.553       .  S
C808        C813   1.537       .  S
C808        C864   1.561       .  S
C809        C817   1.374       .  A
C809        C812   1.402       .  A
C810        C821   1.378       .  A
C810        C813   1.403       .  A
C811        C825   1.377       .  A
C811        C814   1.404       .  A
C812        C815   1.380       .  A
C813        C819   1.372       .  A
C814        C822   1.387       .  A
C815        N816   1.357       .  A
C815        H828   1.081       .  S
N816        C817   1.359       .  A
N816        C894   1.439       .  S
C817        H818   1.082       .  S
C819        N820   1.355       .  A
C819        H829   1.083       .  S
N820        C821   1.359       .  A
N820        C885   1.435       .  S
C821        H827   1.081       .  S
C822        N823   1.359       .  A
C822        H824   1.081       .  S
N823        C825   1.358       .  A
N823        C889   1.446       .  S
C825        H826   1.080       .  S
C830        C832   1.547       .  S
C830        C834   1.552       .  S
C830        C833   1.535       .  S
C830        C867   1.564       .  S
C831        C835   1.535       .  S
C831        C837   1.544       .  S
C831        C836   1.540       .  S
C831        C854   1.552       .  S
C832        C840   1.379       .  A
C832        C835   1.401       .  A
C833        C844   1.372       .  A
C833        C836   1.402       .  A
C834        C848   1.379       .  A
C834        C837   1.405       .  A
C835        C838   1.377       .  A
C836        C842   1.376       .  A
C837        C845   1.382       .  A
C838        N839   1.356       .  A
C838        H851   1.082       .  S
N839        C840   1.361       .  A
N839        C882   1.443       .  S
C840        H841   1.079       .  S
C842        N843   1.356       .  A
C842        H852   1.080       .  S
N843        C844   1.355       .  A
N843        C873   1.431       .  S
C844        H850   1.083       .  S
C845        N846   1.356       .  A
C845        H847   1.082       .  S
N846        C848   1.358       .  A
N846        C877   1.441       .  S
C848        H849   1.080       .  S
C853        C854   1.412       .  A
C853        C858   1.408       .  A
C853        H859   1.079       .  S
C854        C855   1.410       .  A
C855        C856   1.408       .  A
C855        H860   1.082       .  S
C856        C857   1.412       .  A
C856        H861   1.081       .  S
C857        C858   1.409       .  A
C858        H862   1.081       .  S
C863        C864   1.414       .  A
C863        C868   1.413       .  A
C863        H869   1.079       .  S
C864        C865   1.411       .  A
C865        C866   1.412       .  A
C865        H870   1.080       .  S
C866        C867   1.413       .  A
C866        H871   1.078       .  S
C867        C868   1.412       .  A
C868        H872   1.080       .  S
C873        C874   1.345       .  D
C873        H875   1.088       .  S
C874        H876   1.085       .  S
C877        C878   1.344       .  D
C877        H879   1.087       .  S
C878        H880   1.085       .  S
C881        C882   1.345       .  D
C881        H883   1.084       .  S
C882        H884   1.087       .  S
C885        C886   1.343       .  D
C885        H887   1.088       .  S
C886        H888   1.085       .  S
C889        C890   1.348       .  D
C889        H891   1.087       .  S
C890        H892   1.084       .  S
C893        C894   1.344       .  D
C893        H895   1.084       .  S
C894        H896   1.087       .  S
C897        C898   1.182       .  T
C899        C900   1.185       .  T
C901        C902   1.345       .  D
C901        H903   1.088       .  S
C902        H904   1.085       .  S
C905        C906   1.342       .  D
C905        H907   1.088       .  S
C906        H908   1.085       .  S
C909        C910   1.343       .  D
C909        H911   1.084       .  S
C910        H912   1.087       .  S
C913        C914   1.344       .  D
C914        H916   1.084   1_554  S
C917        C918   1.340       .  D
C917        H919   1.087       .  S
C918        H920   1.086       .  S
C921        C922   1.344       .  D
C922        H924   1.083       .  S
C925        C926   1.412       .  A
C925        C930   1.414       .  A
C925        H931   1.075       .  S
C926        C927   1.413       .  A
C927        C928   1.412       .  A
C927        H932   1.081       .  S
C928        C929   1.412       .  A
C928        H933   1.076       .  S
C929        C930   1.414       .  A
C930        H934   1.081       .  S
C935        C936   1.410       .  A
C935        C940   1.410       .  A
C935        H941   1.079       .  S
C936        C937   1.412       .  A
C937        C938   1.408       .  A
C937        H942   1.081       .  S
C938        C939   1.410       .  A
C938        H943   1.079       .  S
C939        C940   1.412       .  A
C940        H944   1.082       .  S
C945        C947   1.534       .  S
C945        C949   1.537       .  S
C945        C948   1.541       .  S
C945       C1172   1.556       .  S
C946        C950   1.545       .  S
C946        C952   1.550       .  S
C946        C951   1.537       .  S
C946       C1165   1.561       .  S
C947        C955   1.378       .  A
C947       C1186   1.402       .  A
C948        C959   1.380       .  A
C948       C1187   1.411       .  A
C949        C963   1.368       .  A
C949       C1188   1.402       .  A
C950       C1183   1.402       .  A
C950        C953   1.378       .  A
C951       C1184   1.414       .  A
C951        C957   1.371       .  A
C952       C1185   1.401       .  A
C952        C960   1.386       .  A
C953        N954   1.355       .  A
C953        H966   1.081       .  S
N954       C1191   1.360       .  A
N954       C1393   1.440       .  S
C955       N1190   1.360       .  A
C955        H956   1.081       .  S
C957       N1194   1.348       .  A
C957        H967   1.083       .  S
N958       C1193   1.352   1_554  A
N958        C959   1.354       .  A
N958       C1153   1.430       .  S
C959        H965   1.081       .  S
C960        N961   1.360       .  A
C960        H962   1.079       .  S
N961       C1199   1.351       .  A
N961       C1149   1.436       .  S
C963       N1197   1.349       .  A
C963        H964   1.082       .  S
C968        C970   1.552       .  S
C968        C972   1.556       .  S
C968        C971   1.541       .  S
C968       C1162   1.566       .  S
C969        C973   1.528       .  S
C969        C975   1.545       .  S
C969        C974   1.531       .  S
C969       C1175   1.554       .  S
C970        C978   1.384       .  A
C970        C973   1.398       .  A
C971        C982   1.375       .  A
C971        C974   1.400       .  A
C972        C986   1.386       .  A
C972        C975   1.416       .  A
C973        C976   1.374       .  A
C974        C980   1.370       .  A
C975        C983   1.379       .  A
C976        N977   1.353       .  A
C976        H989   1.082       .  S
N977        C978   1.359       .  A
N977       C1146   1.438       .  S
C978        H979   1.079       .  S
C980        N981   1.355       .  A
C980        H990   1.081       .  S
N981        C982   1.359       .  A
N981       C1141   1.432       .  S
C982        H988   1.083       .  S
C983        N984   1.352       .  A
C983        H985   1.082       .  S
N984        C986   1.357       .  A
N984       C1137   1.441       .  S
C986        H987   1.079       .  S
C991       O1006   1.263       .  A
C991        O993   1.261       .  A
C991       C1158   1.473       .  S
Tb992      O1722   2.366   1_554  S
Tb992      O1487   2.343   1_545  S
Tb992      O1470   2.344   1_545  S
Tb992      O1244   2.291   1_554  S
Tb992      O1003   2.313       .  S
Tb992       O996   2.329       .  S
Tb992      O1013   2.356   1_545  S
O993       Tb997   2.354       .  S
O994       C1005   1.263       .  A
O994      Tb1469   2.344       .  S
C995       O1000   1.269   1_554  A
C995       O1016   1.271       .  A
C995       C1122   1.468       .  S
O996       C1248   1.262       .  A
Tb997      O1466   2.341   1_545  S
Tb997      O1237   2.322   1_544  S
Tb997      O1006   2.347       .  S
Tb997      O1000   2.346   1_554  S
Tb997      O1479   2.353   1_544  S
Tb997      O1009   2.316       .  S
O998       C1476   1.261   1_556  A
O998      Tb1464   2.348   1_556  S
O999       C1002   1.272       .  A
O1001      C1011   1.265       .  A
O1001     Tb1233   2.321       .  S
C1002      O1015   1.271       .  A
C1002      C1154   1.469       .  S
C1004      O1470   1.259       .  A
C1004      O1013   1.264       .  A
C1004      C1598   1.468       .  S
C1005      O1007   1.261   1_554  A
C1005      C1129   1.474       .  S
O1007     Tb1469   2.358   1_556  S
O1008     Tb1228   2.311       .  S
O1009      C1010   1.257       .  A
C1010      C1136   1.394       .  S
C1011      C1133   1.392       .  S
C1012      O1232   1.260       .  A
C1012      O1486   1.260       .  A
C1012      C1150   1.472       .  S
O1014      C1484   1.261       .  A
O1014     Tb1700   2.360       .  S
O1015     Tb1464   2.352       .  S
C1017      O1032   1.259       .  A
C1017      O1019   1.261       .  A
C1017      C1145   1.469       .  S
Tb1018     O1512   2.342       .  S
Tb1018     O1513   2.339   1_545  S
Tb1018     O1496   2.357   1_545  S
Tb1018     O1034   2.315       .  S
Tb1018     O1029   2.320       .  S
Tb1018     O1022   2.359       .  S
Tb1018     O1039   2.342   1_545  S
O1019     Tb1023   2.355       .  S
O1020      C1031   1.263       .  A
O1020     Tb1495   2.354       .  S
C1021      O1026   1.255       .  A
C1021      O1042   1.249       .  A
C1021      C1110   1.470       .  S
O1022      C1038   1.265       .  A
Tb1023     O1492   2.353   1_545  S
Tb1023     O1027   2.318       .  S
Tb1023     O1032   2.341       .  S
Tb1023     O1026   2.254       .  S
Tb1023     O1505   2.353   1_545  S
Tb1023     O1035   2.306       .  S
O1024      C1502   1.264       .  A
O1024     Tb1490   2.343       .  S
O1025      C1028   1.269   1_455  A
O1027      C1037   1.273       .  A
C1028      O1041   1.270       .  A
C1028      C1142   1.464       .  S
C1030      O1496   1.263       .  A
C1030      O1039   1.262       .  A
C1030      C1586   1.471       .  S
C1031      O1033   1.264       .  A
C1031      C1117   1.474       .  S
O1033     Tb1495   2.351       .  S
O1035      C1036   1.274       .  A
C1036      C1134   1.390       .  S
C1037      C1135   1.393       .  S
C1038      O1512   1.263       .  A
C1038      C1138   1.475       .  S
O1040      C1510   1.262       .  A
O1040     Tb1490   2.368       .  S
O1041     Tb1490   2.330       .  S
C1043      C1045   1.541   1_556  S
C1043      C1047   1.552   1_556  S
C1043      C1046   1.542   1_556  S
C1043      C1329   1.555       .  S
C1044      C1048   1.542       .  S
C1044      C1050   1.541       .  S
C1044      C1049   1.531       .  S
C1044      C1100   1.552       .  S
C1045      C1053   1.381       .  A
C1045      C1048   1.401       .  A
C1046      C1057   1.380       .  A
C1046      C1049   1.400       .  A
C1047      C1061   1.381       .  A
C1047      C1050   1.404       .  A
C1048      C1051   1.375       .  A
C1049      C1055   1.368       .  A
C1050      C1058   1.379       .  A
C1051      N1052   1.352       .  A
C1051      H1064   1.080       .  S
N1052      C1053   1.361       .  A
N1052      C1130   1.438       .  S
C1053      H1054   1.081   1_554  S
C1055      N1056   1.353       .  A
C1055      H1065   1.083       .  S
N1056      C1057   1.359       .  A
N1056      C1121   1.431       .  S
C1057      H1063   1.081   1_554  S
C1058      N1059   1.355       .  A
C1058      H1060   1.082       .  S
N1059      C1061   1.361       .  A
N1059      C1125   1.442       .  S
C1061      H1062   1.079   1_554  S
C1066      C1068   1.544       .  S
C1066      C1070   1.538       .  S
C1066      C1069   1.529       .  S
C1066      C1103   1.554       .  S
C1067      C1071   1.544       .  S
C1067      C1073   1.554       .  S
C1067      C1072   1.548       .  S
C1067      C1090   1.556       .  S
C1068      C1076   1.380       .  A
C1068      C1071   1.400       .  A
C1069      C1080   1.367       .  A
C1069      C1072   1.400       .  A
C1070      C1084   1.371       .  A
C1070      C1073   1.406       .  A
C1071      C1074   1.380       .  A
C1072      C1078   1.385       .  A
C1073      C1081   1.389       .  A
C1074      N1075   1.358       .  A
C1074      H1087   1.083       .  S
N1075      C1076   1.359       .  A
N1075      C1118   1.443       .  S
C1076      H1077   1.079       .  S
C1078      N1079   1.362       .  A
C1078      H1088   1.082       .  S
N1079      C1080   1.351       .  A
N1079      C1109   1.430       .  S
C1080      H1086   1.083       .  S
C1081      N1082   1.360       .  A
C1081      H1083   1.081       .  S
N1082      C1084   1.349       .  A
N1082      C1113   1.437       .  S
C1084      H1085   1.081       .  S
C1089      C1090   1.412       .  A
C1089      C1094   1.414       .  A
C1089      H1095   1.082       .  S
C1090      C1091   1.411       .  A
C1091      C1092   1.409       .  A
C1091      H1096   1.080       .  S
C1092      C1093   1.411       .  A
C1092      H1097   1.078       .  S
C1093      C1279   1.563       .  S
C1093      C1094   1.414       .  A
C1094      H1098   1.081       .  S
C1099      C1100   1.411       .  A
C1099      C1104   1.407       .  A
C1099      H1105   1.076       .  S
C1100      C1101   1.409       .  A
C1101      C1102   1.407       .  A
C1101      H1106   1.082       .  S
C1102      C1103   1.413       .  A
C1102      H1107   1.081       .  S
C1103      C1104   1.408       .  A
C1104      H1108   1.076       .  S
C1109      C1110   1.341       .  D
C1109      H1111   1.088       .  S
C1110      H1112   1.086       .  S
C1113      C1114   1.341       .  D
C1113      H1115   1.088       .  S
C1114      C1502   1.474       .  S
C1114      H1116   1.085       .  S
C1117      C1118   1.348       .  D
C1117      H1119   1.085       .  S
C1118      H1120   1.087       .  S
C1121      C1122   1.343       .  D
C1121      H1123   1.088       .  S
C1122      H1124   1.085   1_554  S
C1125      C1126   1.345       .  D
C1125      H1127   1.087       .  S
C1126      C1476   1.472       .  S
C1126      H1128   1.084   1_554  S
C1129      C1130   1.341       .  D
C1129      H1131   1.085   1_554  S
C1130      H1132   1.088       .  S
C1133      C1134   1.178       .  T
C1135      C1136   1.182       .  T
C1137      C1138   1.346       .  D
C1137      H1139   1.087       .  S
C1138      H1140   1.084       .  S
C1141      C1142   1.346       .  D
C1141      H1143   1.088       .  S
C1142      H1144   1.085       .  S
C1145      C1146   1.345       .  D
C1145      H1147   1.084       .  S
C1146      H1148   1.087       .  S
C1149      C1150   1.343       .  D
C1149      H1387   1.088       .  S
C1150      H1152   1.084       .  S
H1151      C1385   1.088       .  S
C1153      C1154   1.344       .  D
C1153      H1155   1.088       .  S
C1154      H1156   1.086       .  S
C1157      N1190   1.440       .  S
C1157      C1158   1.344       .  D
C1157      H1395   1.087   1_554  S
C1158      H1160   1.084       .  S
H1159      C1393   1.087       .  S
C1161      C1162   1.412       .  A
C1161      C1166   1.409       .  A
C1161      H1167   1.075       .  S
C1162      C1163   1.412       .  A
C1163      C1164   1.414       .  A
C1163      H1168   1.080       .  S
C1164      C1165   1.414       .  A
C1164      H1169   1.076       .  S
C1165      C1166   1.410       .  A
C1166      H1170   1.081       .  S
C1171      C1172   1.409       .  A
C1171      C1176   1.411       .  A
C1171      H1177   1.080       .  S
C1172      C1173   1.413       .  A
C1173      C1174   1.409       .  A
C1173      H1178   1.082       .  S
C1174      C1175   1.409       .  A
C1174      H1179   1.080       .  S
C1175      C1176   1.413       .  A
C1176      H1180   1.082       .  S
C1181      C1183   1.536       .  S
C1181      C1185   1.537       .  S
C1181      C1184   1.545       .  S
C1181      C1408   1.556       .  S
C1182      C1186   1.548   1_556  S
C1182      C1188   1.552   1_556  S
C1182      C1187   1.539   1_556  S
C1182      C1401   1.562       .  S
C1183      C1191   1.378       .  A
C1184      C1195   1.385       .  A
C1185      C1199   1.370       .  A
C1186      C1189   1.378   1_554  A
C1187      C1193   1.373   1_554  A
C1188      C1196   1.390   1_554  A
C1189      N1190   1.356   1_556  A
C1189      H1202   1.081       .  S
C1191      H1192   1.081       .  S
C1193      H1203   1.083       .  S
N1194      C1195   1.355       .  A
N1194      C1389   1.430       .  S
C1195      H1201   1.082       .  S
C1196      N1197   1.361   1_556  A
C1196      H1198   1.080       .  S
N1197      C1385   1.435       .  S
C1199      H1200   1.082       .  S
C1204      C1206   1.547       .  S
C1204      C1208   1.553       .  S
C1204      C1207   1.539       .  S
C1204      C1398   1.566       .  S
C1205      C1209   1.537       .  S
C1205      C1211   1.553       .  S
C1205      C1210   1.535       .  S
C1205      C1411   1.556       .  S
C1206      C1214   1.383       .  A
C1206      C1209   1.399       .  A
C1207      C1218   1.375       .  A
C1207      C1210   1.400       .  A
C1208      C1222   1.377       .  A
C1208      C1211   1.415       .  A
C1209      C1212   1.376       .  A
C1210      C1216   1.375       .  A
C1211      C1219   1.393       .  A
C1212      N1213   1.354       .  A
C1212      H1225   1.083       .  S
N1213      C1214   1.361       .  A
N1213      C1382   1.441       .  S
C1214      H1215   1.079       .  S
C1216      N1217   1.356       .  A
C1216      H1226   1.081       .  S
N1217      C1218   1.357       .  A
N1217      C1377   1.434       .  S
C1218      H1224   1.083       .  S
C1219      N1220   1.360       .  A
C1219      H1221   1.081       .  S
N1220      C1222   1.350       .  A
N1220      C1373   1.444       .  S
C1222      H1223   1.080       .  S
C1227      O1242   1.265       .  A
C1227      O1229   1.261       .  A
C1227      C1394   1.471       .  S
Tb1228     O1486   2.363       .  S
Tb1228     O1723   2.331   1_545  S
Tb1228     O1706   2.367   1_545  S
Tb1228     O1239   2.309       .  S
Tb1228     O1232   2.339       .  S
Tb1228     O1249   2.339   1_545  S
O1229     Tb1233   2.348       .  S
O1230      C1241   1.265       .  A
O1230     Tb1705   2.325       .  S
C1231      O1236   1.267       .  A
C1231      O1252   1.275       .  A
C1231      C1358   1.463       .  S
Tb1233     O1702   2.344   1_545  S
Tb1233     O1242   2.349       .  S
Tb1233     O1236   2.337       .  S
Tb1233     O1715   2.349   1_545  S
Tb1233     O1245   2.320   1_545  S
O1234      C1712   1.260       .  A
O1234     Tb1700   2.346       .  S
O1235      C1238   1.272       .  A
O1237      C1247   1.264       .  A
C1238      O1251   1.270       .  A
C1238      C1390   1.471       .  S
C1240      O1706   1.261       .  A
C1240      O1249   1.261       .  A
C1240      C1834   1.476       .  S
C1241      O1243   1.263       .  A
C1241      C1365   1.464       .  S
O1243     Tb1705   2.345       .  S
O1245      C1246   1.266       .  A
C1246      C1372   1.387   1_565  S
C1247      C1369   1.398       .  S
C1248      O1722   1.263   1_554  A
C1248      C1386   1.474       .  S
O1250      C1720   1.262   1_556  A
O1250     Tb1464   2.359   1_556  S
O1251     Tb1700   2.351       .  S
C1253      O1268   1.263       .  A
C1253      O1255   1.260       .  A
C1253      C1381   1.471       .  S
Tb1254     O1748   2.362       .  S
Tb1254     O1749   2.341   1_545  S
Tb1254     O1732   2.348   1_545  S
Tb1254     O1270   2.320       .  S
Tb1254     O1265   2.324       .  S
Tb1254     O1258   2.353       .  S
Tb1254     O1275   2.348   1_545  S
O1255     Tb1259   2.348       .  S
O1256      C1267   1.265       .  A
O1256     Tb1731   2.358       .  S
C1257      O1262   1.264       .  A
C1257      O1278   1.268       .  A
C1257      C1346   1.465       .  S
O1258      C1274   1.265       .  A
Tb1259     O1728   2.350   1_545  S
Tb1259     O1263   2.319       .  S
Tb1259     O1268   2.356       .  S
Tb1259     O1262   2.332       .  S
Tb1259     O1741   2.347   1_545  S
Tb1259     O1271   2.325   1_545  S
O1260      C1738   1.263       .  A
O1260     Tb1726   2.345       .  S
O1261      C1264   1.267   1_455  A
O1263      C1273   1.262       .  A
C1264      O1277   1.266       .  A
C1264      C1378   1.468       .  S
C1266      O1732   1.264       .  A
C1266      O1275   1.265       .  A
C1266      C1822   1.470       .  S
C1267      O1269   1.263       .  A
C1267      C1353   1.474       .  S
O1269     Tb1731   2.349       .  S
O1271      C1272   1.268       .  A
C1272      C1370   1.400       .  S
C1273      C1371   1.387       .  S
C1274      O1748   1.262       .  A
C1274      C1374   1.481       .  S
O1276      C1746   1.262       .  A
O1276     Tb1726   2.358       .  S
O1277     Tb1726   2.332       .  S
C1279      C1281   1.536       .  S
C1279      C1283   1.552       .  S
C1279      C1282   1.538       .  S
C1280      C1284   1.541       .  S
C1280      C1286   1.543       .  S
C1280      C1285   1.535       .  S
C1280      C1336   1.562       .  S
C1281      C1289   1.374       .  A
C1281      C1284   1.404       .  A
C1282      C1293   1.374       .  A
C1282      C1285   1.403       .  A
C1283      C1297   1.380       .  A
C1283      C1286   1.406       .  A
C1284      C1287   1.373       .  A
C1285      C1291   1.372       .  A
C1286      C1294   1.378       .  A
C1287      N1288   1.353       .  A
C1287      H1300   1.081       .  S
N1288      C1289   1.359       .  A
N1288      C1366   1.433       .  S
C1289      H1290   1.081       .  S
C1291      N1292   1.358       .  A
C1291      H1301   1.082       .  S
N1292      C1293   1.353       .  A
N1292      C1357   1.430       .  S
C1293      H1299   1.082       .  S
C1294      N1295   1.353       .  A
C1294      H1296   1.081       .  S
N1295      C1297   1.359       .  A
N1295      C1361   1.439       .  S
C1297      H1298   1.079       .  S
C1302      C1304   1.548       .  S
C1302      C1306   1.549       .  S
C1302      C1305   1.538       .  S
C1302      C1339   1.562       .  S
C1303      C1307   1.533       .  S
C1303      C1309   1.539       .  S
C1303      C1308   1.539       .  S
C1303      C1326   1.557       .  S
C1304      C1312   1.380       .  A
C1304      C1307   1.401       .  A
C1305      C1316   1.376       .  A
C1305      C1308   1.403       .  A
C1306      C1320   1.378       .  A
C1306      C1309   1.405       .  A
C1307      C1310   1.373       .  A
C1308      C1314   1.372       .  A
C1309      C1317   1.374       .  A
C1310      N1311   1.356       .  A
C1310      H1323   1.083       .  S
N1311      C1312   1.363       .  A
N1311      C1354   1.443       .  S
C1312      H1313   1.080       .  S
C1314      N1315   1.357       .  A
C1314      H1324   1.080       .  S
N1315      C1316   1.357       .  A
N1315      C1345   1.435       .  S
C1316      H1322   1.083       .  S
C1317      N1318   1.351       .  A
C1317      H1319   1.081       .  S
N1318      C1320   1.357       .  A
N1318      C1349   1.431       .  S
C1320      H1321   1.080       .  S
C1325      C1326   1.412       .  A
C1325      C1330   1.411       .  A
C1325      H1331   1.079       .  S
C1326      C1327   1.411       .  A
C1327      C1328   1.409       .  A
C1327      H1332   1.081       .  S
C1328      C1329   1.411       .  A
C1328      H1333   1.079       .  S
C1329      C1330   1.411       .  A
C1330      H1334   1.081       .  S
C1335      C1336   1.414       .  A
C1335      C1340   1.414       .  A
C1335      H1341   1.078       .  S
C1336      C1337   1.411       .  A
C1337      C1338   1.411       .  A
C1337      H1342   1.081       .  S
C1338      C1339   1.413       .  A
C1338      H1343   1.079       .  S
C1339      C1340   1.411       .  A
C1340      H1344   1.081       .  S
C1345      C1346   1.344       .  D
C1345      H1347   1.087       .  S
C1346      H1348   1.085       .  S
C1349      C1350   1.340       .  D
C1349      H1351   1.087       .  S
C1350      C1738   1.461       .  S
C1350      H1352   1.085       .  S
C1353      C1354   1.345       .  D
C1353      H1355   1.083       .  S
C1354      H1356   1.087       .  S
C1357      C1358   1.337       .  D
C1357      H1359   1.088       .  S
C1358      H1360   1.086       .  S
C1361      C1362   1.343       .  D
C1361      H1363   1.087       .  S
C1362      C1712   1.469       .  S
C1362      H1364   1.084       .  S
C1365      C1366   1.340       .  D
C1365      H1367   1.084       .  S
C1366      H1368   1.088       .  S
C1369      C1370   1.184       .  T
C1371      C1372   1.178       .  T
C1373      C1374   1.345       .  D
C1373      H1375   1.088       .  S
C1374      H1376   1.084       .  S
C1377      C1378   1.345       .  D
C1377      H1379   1.088       .  S
C1378      H1380   1.085       .  S
C1381      C1382   1.344       .  D
C1381      H1383   1.084       .  S
C1382      H1384   1.087       .  S
C1385      C1386   1.342       .  D
C1386      H1388   1.085   1_554  S
C1389      C1390   1.342       .  D
C1389      H1391   1.088       .  S
C1390      H1392   1.086       .  S
C1393      C1394   1.343       .  D
C1394      H1396   1.084       .  S
C1397      C1398   1.412       .  A
C1397      C1402   1.412       .  A
C1397      H1403   1.076       .  S
C1398      C1399   1.413       .  A
C1399      C1400   1.412       .  A
C1399      H1404   1.081       .  S
C1400      C1401   1.411       .  A
C1400      H1405   1.077       .  S
C1401      C1402   1.412       .  A
C1402      H1406   1.081       .  S
C1407      C1408   1.409       .  A
C1407      C1412   1.410       .  A
C1407      H1413   1.080       .  S
C1408      C1409   1.414       .  A
C1409      C1410   1.411       .  A
C1409      H1414   1.082       .  S
C1410      C1411   1.410       .  A
C1410      H1415   1.080       .  S
C1411      C1412   1.414       .  A
C1412      H1416   1.082       .  S
C1417      C1419   1.539       .  S
C1417      C1421   1.542       .  S
C1417      C1420   1.544       .  S
C1417      C1644   1.562       .  S
C1418      C1422   1.550       .  S
C1418      C1424   1.559       .  S
C1418      C1423   1.536       .  S
C1418      C1637   1.560       .  S
C1419      C1427   1.380       .  A
C1419      C1658   1.402       .  A
C1420      C1431   1.380       .  A
C1420      C1659   1.403       .  A
C1421      C1435   1.370       .  A
C1421      C1660   1.404       .  A
C1422      C1655   1.401       .  A
C1422      C1425   1.383       .  A
C1423      C1656   1.402       .  A
C1423      C1429   1.370       .  A
C1424      C1657   1.403       .  A
C1424      C1432   1.394       .  A
C1425      N1426   1.359       .  A
C1425      H1438   1.082       .  S
N1426      C1663   1.360       .  A
N1426      C1865   1.446       .  S
C1427      N1662   1.362       .  A
C1427      H1428   1.081       .  S
C1429      N1666   1.352       .  A
C1429      H1439   1.083       .  S
N1430      C1665   1.351   1_554  A
N1430      C1431   1.360       .  A
N1430      C1625   1.431       .  S
C1431      H1437   1.080       .  S
C1432      N1433   1.364       .  A
C1432      H1434   1.080       .  S
N1433      C1671   1.351       .  A
N1433      C1621   1.443       .  S
C1435      N1669   1.350       .  A
C1435      H1436   1.082       .  S
C1440      C1442   1.541       .  S
C1440      C1444   1.540       .  S
C1440      C1443   1.537       .  S
C1440      C1634   1.564       .  S
C1441      C1445   1.538       .  S
C1441      C1447   1.557       .  S
C1441      C1446   1.542       .  S
C1441      C1647   1.562       .  S
C1442      C1450   1.378       .  A
C1442      C1445   1.401       .  A
C1443      C1454   1.374       .  A
C1443      C1446   1.406       .  A
C1444      C1458   1.369       .  A
C1444      C1447   1.407       .  A
C1445      C1448   1.376       .  A
C1446      C1452   1.376       .  A
C1447      C1455   1.392       .  A
C1448      N1449   1.355       .  A
C1448      H1461   1.083       .  S
N1449      C1450   1.357       .  A
N1449      C1618   1.436       .  S
C1450      H1451   1.078       .  S
C1452      N1453   1.356       .  A
C1452      H1462   1.080       .  S
N1453      C1454   1.356       .  A
N1453      C1613   1.434       .  S
C1454      H1460   1.083       .  S
C1455      N1456   1.363       .  A
C1455      H1457   1.080       .  S
N1456      C1458   1.349       .  A
N1456      C1609   1.439       .  S
C1458      H1459   1.081       .  S
C1463      O1478   1.263       .  A
C1463      O1465   1.260       .  A
C1463      C1630   1.473       .  S
Tb1464     O1716   2.316   1_554  S
Tb1464     O1475   2.335   1_655  S
Tb1464     O1468   2.347       .  S
Tb1464     O1485   2.359       .  S
O1465     Tb1469   2.356       .  S
O1466      C1477   1.264       .  A
C1467      O1472   1.269   1_554  A
C1467      O1488   1.270       .  A
C1467      C1594   1.469       .  S
O1468      C1720   1.266       .  A
Tb1469     O1709   2.322   1_554  S
Tb1469     O1478   2.351       .  S
Tb1469     O1472   2.347   1_554  S
Tb1469     O1481   2.321       .  S
O1471      C1474   1.263   1_455  A
O1473      C1483   1.263       .  A
O1473     Tb1705   2.311       .  S
C1474      O1487   1.270       .  A
C1474      C1626   1.465       .  S
C1476      O1485   1.263       .  A
C1477      O1479   1.262   1_554  A
C1477      C1601   1.472       .  S
O1480     Tb1700   2.319       .  S
O1481      C1482   1.262       .  A
C1482      C1608   1.392       .  S
C1483      C1605   1.386       .  S
C1484      O1704   1.265       .  A
C1484      C1622   1.481       .  S
C1489      O1504   1.259       .  A
C1489      O1491   1.261       .  A
C1489      C1617   1.467       .  S
Tb1490     O1506   2.313       .  S
Tb1490     O1501   2.314       .  S
Tb1490     O1494   2.338       .  S
Tb1490     O1511   2.358       .  S
O1491     Tb1495   2.354       .  S
O1492      C1503   1.263       .  A
C1493      O1498   1.256       .  A
C1493      O1514   1.249       .  A
C1493      C1582   1.463       .  S
O1494      C1510   1.262       .  A
Tb1495     O1499   2.318       .  S
Tb1495     O1504   2.341       .  S
Tb1495     O1498   2.259       .  S
Tb1495     O1507   2.304       .  S
O1497      C1500   1.265   1_455  A
O1499      C1509   1.274       .  A
C1500      O1513   1.269       .  A
C1500      C1614   1.466       .  S
C1502      O1511   1.261       .  A
C1503      O1505   1.264       .  A
C1503      C1589   1.475       .  S
O1507      C1508   1.274       .  A
C1508      C1606   1.387       .  S
C1509      C1607   1.394       .  S
C1510      C1610   1.478       .  S
C1515      C1517   1.540       .  S
C1515      C1519   1.547       .  S
C1515      C1518   1.542       .  S
C1515      C1801   1.555   1_554  S
C1516      C1520   1.543       .  S
C1516      C1522   1.541       .  S
C1516      C1521   1.533       .  S
C1516      C1572   1.556       .  S
C1517      C1525   1.379       .  A
C1517      C1520   1.402       .  A
C1518      C1529   1.380       .  A
C1518      C1521   1.401       .  A
C1519      C1533   1.380       .  A
C1519      C1522   1.404       .  A
C1520      C1523   1.376       .  A
C1521      C1527   1.368       .  A
C1522      C1530   1.377       .  A
C1523      N1524   1.354       .  A
C1523      H1536   1.080       .  S
N1524      C1525   1.361       .  A
N1524      C1602   1.438       .  S
C1525      H1526   1.081   1_554  S
C1527      N1528   1.354       .  A
C1527      H1537   1.083       .  S
N1528      C1529   1.359       .  A
N1528      C1593   1.431       .  S
C1529      H1535   1.081   1_554  S
C1530      N1531   1.352       .  A
C1530      H1532   1.081       .  S
N1531      C1533   1.359       .  A
N1531      C1597   1.438       .  S
C1533      H1534   1.081   1_554  S
C1538      C1540   1.549       .  S
C1538      C1542   1.549       .  S
C1538      C1541   1.532       .  S
C1538      C1575   1.556       .  S
C1539      C1543   1.535       .  S
C1539      C1545   1.541       .  S
C1539      C1544   1.545       .  S
C1539      C1562   1.552       .  S
C1540      C1548   1.382       .  A
C1540      C1543   1.400       .  A
C1541      C1552   1.370       .  A
C1541      C1544   1.400       .  A
C1542      C1556   1.382       .  A
C1542      C1545   1.405       .  A
C1543      C1546   1.377       .  A
C1544      C1550   1.381       .  A
C1545      C1553   1.375       .  A
C1546      N1547   1.356       .  A
C1546      H1559   1.083       .  S
N1547      C1548   1.360       .  A
N1547      C1590   1.440       .  S
C1548      H1549   1.081       .  S
C1550      N1551   1.360       .  A
C1550      H1560   1.081       .  S
N1551      C1552   1.353       .  A
N1551      C1581   1.432       .  S
C1552      H1558   1.083       .  S
C1553      N1554   1.352       .  A
C1553      H1555   1.082       .  S
N1554      C1556   1.360       .  A
N1554      C1585   1.437       .  S
C1556      H1557   1.080       .  S
C1561      C1562   1.411       .  A
C1561      C1566   1.413       .  A
C1561      H1567   1.080       .  S
C1562      C1563   1.410       .  A
C1563      C1564   1.406       .  A
C1563      H1568   1.081       .  S
C1564      C1565   1.411       .  A
C1564      H1569   1.082       .  S
C1565      C1751   1.556       .  S
C1565      C1566   1.412       .  A
C1566      H1570   1.078       .  S
C1571      C1572   1.410       .  A
C1571      C1576   1.409       .  A
C1571      H1577   1.077       .  S
C1572      C1573   1.412       .  A
C1573      C1574   1.409       .  A
C1573      H1578   1.081       .  S
C1574      C1575   1.411       .  A
C1574      H1579   1.080       .  S
C1575      C1576   1.411       .  A
C1576      H1580   1.078       .  S
C1581      C1582   1.340       .  D
C1581      H1583   1.089       .  S
C1582      H1584   1.085       .  S
C1585      C1586   1.344       .  D
C1585      H1587   1.088       .  S
C1586      H1588   1.085       .  S
C1589      C1590   1.346       .  D
C1589      H1591   1.085       .  S
C1590      H1592   1.087       .  S
C1593      C1594   1.343       .  D
C1593      H1595   1.088       .  S
C1594      H1596   1.085   1_554  S
C1597      C1598   1.341       .  D
C1597      H1599   1.087       .  S
C1598      H1600   1.085       .  S
C1601      C1602   1.342       .  D
C1601      H1603   1.084   1_554  S
C1602      H1604   1.088       .  S
C1605      C1606   1.176       .  T
C1607      C1608   1.181       .  T
C1609      C1610   1.342       .  D
C1609      H1611   1.088       .  S
C1610      H1612   1.085       .  S
C1613      C1614   1.344       .  D
C1613      H1615   1.088       .  S
C1614      H1616   1.085       .  S
C1617      C1618   1.345       .  D
C1617      H1619   1.085       .  S
C1618      H1620   1.087       .  S
C1621      C1622   1.343       .  D
C1621      H1859   1.087       .  S
C1622      H1624   1.084       .  S
H1623      C1857   1.088       .  S
C1625      C1626   1.340       .  D
C1625      H1627   1.088   1_554  S
C1626      H1628   1.085       .  S
C1629      N1662   1.440       .  S
C1629      C1630   1.343       .  D
C1629      H1867   1.088   1_554  S
C1630      H1632   1.084       .  S
H1631      C1865   1.087       .  S
C1633      C1634   1.411       .  A
C1633      C1638   1.411       .  A
C1633      H1639   1.076       .  S
C1634      C1635   1.413       .  A
C1635      C1636   1.413       .  A
C1635      H1640   1.082       .  S
C1636      C1637   1.413       .  A
C1636      H1641   1.077       .  S
C1637      C1638   1.412       .  A
C1638      H1642   1.081       .  S
C1643      C1644   1.410       .  A
C1643      C1648   1.415       .  A
C1643      H1649   1.079       .  S
C1644      C1645   1.414       .  A
C1645      C1646   1.410       .  A
C1645      H1650   1.081       .  S
C1646      C1647   1.409       .  A
C1646      H1651   1.078       .  S
C1647      C1648   1.417       .  A
C1648      H1652   1.081       .  S
C1653      C1655   1.537       .  S
C1653      C1657   1.540       .  S
C1653      C1656   1.544       .  S
C1653      C1880   1.553       .  S
C1654      C1658   1.544   1_556  S
C1654      C1660   1.554   1_556  S
C1654      C1659   1.532   1_556  S
C1654      C1873   1.560       .  S
C1655      C1663   1.377       .  A
C1656      C1667   1.383       .  A
C1657      C1671   1.372       .  A
C1658      C1661   1.376   1_554  A
C1659      C1665   1.368   1_554  A
C1660      C1668   1.391   1_554  A
C1661      N1662   1.354   1_556  A
C1661      H1674   1.081       .  S
C1663      H1664   1.081       .  S
C1665      H1675   1.083       .  S
N1666      C1667   1.358       .  A
N1666      C1861   1.432       .  S
C1667      H1673   1.080       .  S
C1668      N1669   1.364   1_556  A
C1668      H1670   1.080       .  S
N1669      C1857   1.440       .  S
C1671      H1672   1.082       .  S
C1676      C1678   1.546       .  S
C1676      C1680   1.543       .  S
C1676      C1679   1.541       .  S
C1676      C1870   1.561       .  S
C1677      C1681   1.538       .  S
C1677      C1683   1.554       .  S
C1677      C1682   1.540       .  S
C1677      C1883   1.554       .  S
C1678      C1686   1.380       .  A
C1678      C1681   1.401       .  A
C1679      C1690   1.378       .  A
C1679      C1682   1.401       .  A
C1680      C1694   1.374       .  A
C1680      C1683   1.404       .  A
C1681      C1684   1.376       .  A
C1682      C1688   1.377       .  A
C1683      C1691   1.390       .  A
C1684      N1685   1.355       .  A
C1684      H1697   1.083       .  S
N1685      C1686   1.361       .  A
N1685      C1854   1.440       .  S
C1686      H1687   1.079       .  S
C1688      N1689   1.356       .  A
C1688      H1698   1.080       .  S
N1689      C1690   1.359       .  A
N1689      C1849   1.438       .  S
C1690      H1696   1.083       .  S
C1691      N1692   1.363       .  A
C1691      H1693   1.079       .  S
N1692      C1694   1.351       .  A
N1692      C1845   1.442       .  S
C1694      H1695   1.082       .  S
C1699      O1714   1.264       .  A
C1699      O1701   1.262       .  A
C1699      C1866   1.478       .  S
Tb1700     O1711   2.334   1_655  S
Tb1700     O1704   2.356       .  S
Tb1700     O1721   2.353       .  S
O1701     Tb1705   2.356       .  S
O1702      C1713   1.264       .  A
C1703      O1708   1.268       .  A
C1703      O1724   1.272       .  A
C1703      C1830   1.459       .  S
Tb1705     O1714   2.363       .  S
Tb1705     O1708   2.343       .  S
Tb1705     O1717   2.317       .  S
O1707      C1710   1.268   1_455  A
O1709      C1719   1.264       .  A
C1710      O1723   1.269       .  A
C1710      C1862   1.472       .  S
C1712      O1721   1.263       .  A
C1713      O1715   1.263       .  A
C1713      C1837   1.469       .  S
O1717      C1718   1.263       .  A
C1718      C1844   1.389       .  S
C1719      C1841   1.397       .  S
C1720      C1858   1.478       .  S
C1725      O1740   1.266       .  A
C1725      O1727   1.263       .  A
C1725      C1853   1.468       .  S
Tb1726     O1742   2.311       .  S
Tb1726     O1737   2.317       .  S
Tb1726     O1730   2.350       .  S
Tb1726     O1747   2.323       .  S
O1727     Tb1731   2.340       .  S
O1728      C1739   1.264       .  A
C1729      O1734   1.269       .  A
C1729      O1750   1.271       .  A
C1729      C1818   1.465       .  S
O1730      C1746   1.264       .  A
Tb1731     O1735   2.313       .  S
Tb1731     O1740   2.349       .  S
Tb1731     O1734   2.344       .  S
Tb1731     O1743   2.315       .  S
O1733      C1736   1.266   1_455  A
O1735      C1745   1.259       .  A
C1736      O1749   1.268       .  A
C1736      C1850   1.472       .  S
C1738      O1747   1.263       .  A
C1739      O1741   1.261       .  A
C1739      C1825   1.471       .  S
O1743      C1744   1.265       .  A
C1744      C1842   1.399       .  S
C1745      C1843   1.390       .  S
C1746      C1846   1.476       .  S
C1751      C1753   1.526       .  S
C1751      C1755   1.536       .  S
C1751      C1754   1.537       .  S
C1752      C1756   1.551       .  S
C1752      C1758   1.559       .  S
C1752      C1757   1.535       .  S
C1752      C1808   1.565       .  S
C1753      C1761   1.372       .  A
C1753      C1756   1.400       .  A
C1754      C1765   1.373       .  A
C1754      C1757   1.404       .  A
C1755      C1769   1.367       .  A
C1755      C1758   1.407       .  A
C1756      C1759   1.381       .  A
C1757      C1763   1.371       .  A
C1758      C1766   1.391       .  A
C1759      N1760   1.357       .  A
C1759      H1772   1.081       .  S
N1760      C1761   1.358       .  A
N1760      C1838   1.439       .  S
C1761      H1762   1.081       .  S
C1763      N1764   1.356       .  A
C1763      H1773   1.082       .  S
N1764      C1765   1.353       .  A
N1764      C1829   1.428       .  S
C1765      H1771   1.081       .  S
C1766      N1767   1.365       .  A
C1766      H1768   1.080       .  S
N1767      C1769   1.350       .  A
N1767      C1833   1.438       .  S
C1769      H1770   1.083       .  S
C1774      C1776   1.552       .  S
C1774      C1778   1.553       .  S
C1774      C1777   1.541       .  S
C1774      C1811   1.568       .  S
C1775      C1779   1.532       .  S
C1775      C1781   1.539       .  S
C1775      C1780   1.536       .  S
C1775      C1798   1.556       .  S
C1776      C1784   1.383       .  A
C1776      C1779   1.402       .  A
C1777      C1788   1.376       .  A
C1777      C1780   1.404       .  A
C1778      C1792   1.380       .  A
C1778      C1781   1.405       .  A
C1779      C1782   1.372       .  A
C1780      C1786   1.372       .  A
C1781      C1789   1.378       .  A
C1782      N1783   1.354       .  A
C1782      H1795   1.083       .  S
N1783      C1784   1.363       .  A
N1783      C1826   1.440       .  S
C1784      H1785   1.080       .  S
C1786      N1787   1.355       .  A
C1786      H1796   1.080       .  S
N1787      C1788   1.358       .  A
N1787      C1817   1.433       .  S
C1788      H1794   1.083       .  S
C1789      N1790   1.354       .  A
C1789      H1791   1.082       .  S
N1790      C1792   1.359       .  A
N1790      C1821   1.439       .  S
C1792      H1793   1.079       .  S
C1797      C1798   1.413       .  A
C1797      C1802   1.411       .  A
C1797      H1803   1.080       .  S
C1798      C1799   1.410       .  A
C1799      C1800   1.409       .  A
C1799      H1804   1.082       .  S
C1800      C1801   1.413       .  A
C1800      H1805   1.080       .  S
C1801      C1802   1.410       .  A
C1802      H1806   1.081       .  S
C1807      C1808   1.416       .  A
C1807      C1812   1.413       .  A
C1807      H1813   1.079       .  S
C1808      C1809   1.411       .  A
C1809      C1810   1.415       .  A
C1809      H1814   1.079       .  S
C1810      C1811   1.416       .  A
C1810      H1815   1.077       .  S
C1811      C1812   1.411       .  A
C1812      H1816   1.080       .  S
C1817      C1818   1.346       .  D
C1817      H1819   1.088       .  S
C1818      H1820   1.085       .  S
C1821      C1822   1.344       .  D
C1821      H1823   1.087       .  S
C1822      H1824   1.085       .  S
C1825      C1826   1.343       .  D
C1825      H1827   1.084       .  S
C1826      H1828   1.087       .  S
C1829      C1830   1.339       .  D
C1829      H1831   1.089       .  S
C1830      H1832   1.085       .  S
C1833      C1834   1.342       .  D
C1833      H1835   1.088       .  S
C1834      H1836   1.085       .  S
C1837      C1838   1.345       .  D
C1837      H1839   1.084       .  S
C1838      H1840   1.088       .  S
C1841      C1842   1.182       .  T
C1843      C1844   1.179       .  T
C1845      C1846   1.343       .  D
C1845      H1847   1.088       .  S
C1846      H1848   1.084       .  S
C1849      C1850   1.348       .  D
C1849      H1851   1.088       .  S
C1850      H1852   1.085       .  S
C1853      C1854   1.344       .  D
C1853      H1855   1.084       .  S
C1854      H1856   1.087       .  S
C1857      C1858   1.341       .  D
C1858      H1860   1.085   1_554  S
C1861      C1862   1.343       .  D
C1861      H1863   1.088       .  S
C1862      H1864   1.086       .  S
C1865      C1866   1.348       .  D
C1866      H1868   1.083       .  S
C1869      C1870   1.409       .  A
C1869      C1874   1.411       .  A
C1869      H1875   1.077       .  S
C1870      C1871   1.414       .  A
C1871      C1872   1.411       .  A
C1871      H1876   1.082       .  S
C1872      C1873   1.410       .  A
C1872      H1877   1.078       .  S
C1873      C1874   1.415       .  A
C1874      H1878   1.080       .  S
C1879      C1880   1.408       .  A
C1879      C1884   1.408       .  A
C1879      H1885   1.078       .  S
C1880      C1881   1.413       .  A
C1881      C1882   1.408       .  A
C1881      H1886   1.081       .  S
C1882      C1883   1.408       .  A
C1882      H1887   1.076       .  S
C1883      C1884   1.413       .  A
C1884      H1888   1.082       .  S
